Title Card Required
 OpenBabel11212321153D

 22 23  0  0  0  0  0  0  0  0999 V2000
    1.2019    0.3239   -0.0000 C   0  0  0  0  0  0  0  0  0  0  0  0
   -0.0320   -0.3750   -0.0000 C   0  0  0  0  0  0  0  0  0  0  0  0
   -1.2398    0.3934    0.0000 C   0  0  0  0  0  0  0  0  0  0  0  0
   -1.2469    1.7914   -0.0000 C   0  0  0  0  0  0  0  0  0  0  0  0
   -0.0164    2.4479   -0.0000 C   0  0  0  0  0  0  0  0  0  0  0  0
    1.1853    1.7232    0.0000 C   0  0  0  0  0  0  0  0  0  0  0  0
   -2.3046   -0.4855    0.0001 N   0  0  0  0  0  0  0  0  0  0  0  0
   -1.8054   -1.7728    0.0000 C   0  0  0  0  0  0  0  0  0  0  0  0
   -0.4298   -1.7547   -0.0000 C   0  0  0  0  0  0  0  0  0  0  0  0
    2.1454    2.2413    0.0000 H   0  0  0  0  0  0  0  0  0  0  0  0
   -2.4883   -2.6210   -0.0000 H   0  0  0  0  0  0  0  0  0  0  0  0
    0.2280   -2.6163   -0.0001 H   0  0  0  0  0  0  0  0  0  0  0  0
   -3.6969   -0.1038   -0.0000 C   0  0  0  0  0  0  0  0  0  0  0  0
   -3.9470    0.4912   -0.8941 H   0  0  0  0  0  0  0  0  0  0  0  0
   -4.3203   -1.0075    0.0003 H   0  0  0  0  0  0  0  0  0  0  0  0
   -3.9469    0.4917    0.8938 H   0  0  0  0  0  0  0  0  0  0  0  0
   -2.1829    2.3537   -0.0000 H   0  0  0  0  0  0  0  0  0  0  0  0
    0.0134    3.5396   -0.0000 H   0  0  0  0  0  0  0  0  0  0  0  0
    2.5328   -0.3347    0.0000 C   0  0  0  0  0  0  0  0  0  0  0  0
    3.5947    0.2471    0.0000 O   0  0  0  0  0  0  0  0  0  0  0  0
    2.4704   -1.6865    0.0000 O   0  0  0  0  0  0  0  0  0  0  0  0
    3.3927   -1.9928    0.0000 H   0  0  0  0  0  0  0  0  0  0  0  0
  1 19  1  0  0  0  0
  1  6  1  0  0  0  0
  2  1  2  0  0  0  0
  2  3  1  0  0  0  0
  3  7  1  0  0  0  0
  4  3  2  0  0  0  0
  5  4  1  0  0  0  0
  5  6  2  0  0  0  0
  6 10  1  0  0  0  0
  8  7  1  0  0  0  0
  9  2  1  0  0  0  0
  9  8  2  0  0  0  0
 11  8  1  0  0  0  0
 12  9  1  0  0  0  0
 13  7  1  0  0  0  0
 13 15  1  0  0  0  0
 13 16  1  0  0  0  0
 14 13  1  0  0  0  0
 17  4  1  0  0  0  0
 18  5  1  0  0  0  0
 19 21  1  0  0  0  0
 19 20  2  0  0  0  0
 21 22  1  0  0  0  0
M  END
