Title Card Required
 OpenBabel11212321153D

 42 44  0  0  0  0  0  0  0  0999 V2000
   -1.3156    1.4561   -0.0773 C   0  0  0  0  0  0  0  0  0  0  0  0
    0.0231    1.9443   -0.0735 C   0  0  0  0  0  0  0  0  0  0  0  0
    0.2445    3.3191   -0.2610 C   0  0  0  0  0  0  0  0  0  0  0  0
   -0.8449    4.1679   -0.4441 C   0  0  0  0  0  0  0  0  0  0  0  0
   -2.1569    3.6646   -0.4423 C   0  0  0  0  0  0  0  0  0  0  0  0
   -2.4125    2.3054   -0.2598 C   0  0  0  0  0  0  0  0  0  0  0  0
   -1.2479    0.0663    0.1201 N   0  0  0  0  0  0  0  0  0  0  0  0
    0.0990   -0.2936    0.2438 C   0  0  0  0  0  0  0  0  0  0  0  0
    0.9049    0.8028    0.1355 C   0  0  0  0  0  0  0  0  0  0  0  0
    0.3405   -1.3382    0.3901 H   0  0  0  0  0  0  0  0  0  0  0  0
   -3.4223    1.9054   -0.2559 H   0  0  0  0  0  0  0  0  0  0  0  0
   -2.9970    4.3482   -0.5860 H   0  0  0  0  0  0  0  0  0  0  0  0
    1.2561    3.7257   -0.2656 H   0  0  0  0  0  0  0  0  0  0  0  0
   -0.6766    5.2373   -0.5902 H   0  0  0  0  0  0  0  0  0  0  0  0
   -2.2806   -0.8630    0.1607 C   0  0  0  0  0  0  0  0  0  0  0  0
   -4.5041   -1.3301    0.0981 C   0  0  0  0  0  0  0  0  0  0  0  0
   -2.8949   -3.0454    0.3491 C   0  0  0  0  0  0  0  0  0  0  0  0
   -4.2438   -2.6927    0.2487 C   0  0  0  0  0  0  0  0  0  0  0  0
   -5.5312   -0.9576    0.0096 H   0  0  0  0  0  0  0  0  0  0  0  0
   -2.5930   -4.0925    0.4686 H   0  0  0  0  0  0  0  0  0  0  0  0
   -5.0413   -3.4351    0.2851 H   0  0  0  0  0  0  0  0  0  0  0  0
   -1.9168   -2.1474    0.3047 N   0  0  0  0  0  0  0  0  0  0  0  0
   -3.5370   -0.4161    0.0546 N   0  0  0  0  0  0  0  0  0  0  0  0
    2.4223    0.8333    0.2301 C   0  0  0  0  0  0  0  0  0  0  0  0
    3.0329    1.3239   -1.1041 C   0  0  0  0  0  0  0  0  0  0  0  0
    2.7041    2.3484   -1.3254 H   0  0  0  0  0  0  0  0  0  0  0  0
    4.1330    1.3232   -1.0473 H   0  0  0  0  0  0  0  0  0  0  0  0
    2.7235    0.6737   -1.9327 H   0  0  0  0  0  0  0  0  0  0  0  0
    2.8719    1.7311    1.3964 C   0  0  0  0  0  0  0  0  0  0  0  0
    3.9685    1.7333    1.4780 H   0  0  0  0  0  0  0  0  0  0  0  0
    2.5281    2.7628    1.2477 H   0  0  0  0  0  0  0  0  0  0  0  0
    2.4650    1.3624    2.3475 H   0  0  0  0  0  0  0  0  0  0  0  0
    2.9493   -0.5843    0.5016 C   0  0  0  0  0  0  0  0  0  0  0  0
    3.5416   -0.9281    1.4946 O   0  0  0  0  0  0  0  0  0  0  0  0
    2.6804   -1.4206   -0.5167 O   0  0  0  0  0  0  0  0  0  0  0  0
    3.0625   -2.7956   -0.3602 C   0  0  0  0  0  0  0  0  0  0  0  0
    4.1590   -2.8716   -0.4490 H   0  0  0  0  0  0  0  0  0  0  0  0
    2.7981   -3.1262    0.6561 H   0  0  0  0  0  0  0  0  0  0  0  0
    2.3472   -3.5966   -1.4273 C   0  0  0  0  0  0  0  0  0  0  0  0
    2.6124   -3.2375   -2.4334 H   0  0  0  0  0  0  0  0  0  0  0  0
    2.6269   -4.6589   -1.3534 H   0  0  0  0  0  0  0  0  0  0  0  0
    1.2556   -3.5147   -1.3092 H   0  0  0  0  0  0  0  0  0  0  0  0
  1  2  1  0  0  0  0
  1  7  1  0  0  0  0
  2  9  1  0  0  0  0
  3  2  2  0  0  0  0
  4  5  2  0  0  0  0
  4  3  1  0  0  0  0
  5  6  1  0  0  0  0
  6 11  1  0  0  0  0
  6  1  2  0  0  0  0
  7 15  1  0  0  0  0
  7  8  1  0  0  0  0
  8 10  1  0  0  0  0
  9 24  1  0  0  0  0
  9  8  2  0  0  0  0
 12  5  1  0  0  0  0
 13  3  1  0  0  0  0
 14  4  1  0  0  0  0
 15 22  2  0  0  0  0
 16 18  1  0  0  0  0
 17 20  1  0  0  0  0
 18 21  1  0  0  0  0
 18 17  2  0  0  0  0
 19 16  1  0  0  0  0
 22 17  1  0  0  0  0
 23 16  2  0  0  0  0
 23 15  1  0  0  0  0
 24 33  1  0  0  0  0
 24 29  1  0  0  0  0
 25 27  1  0  0  0  0
 25 24  1  0  0  0  0
 26 25  1  0  0  0  0
 28 25  1  0  0  0  0
 29 30  1  0  0  0  0
 29 32  1  0  0  0  0
 31 29  1  0  0  0  0
 33 34  2  0  0  0  0
 35 36  1  0  0  0  0
 35 33  1  0  0  0  0
 36 38  1  0  0  0  0
 37 36  1  0  0  0  0
 39 41  1  0  0  0  0
 39 42  1  0  0  0  0
 39 36  1  0  0  0  0
 40 39  1  0  0  0  0
M  END
