Title Card Required
 OpenBabel11212310513D

 26 27  0  0  0  0  0  0  0  0999 V2000
    1.6114   -0.0005    0.0000 C   0  0  0  0  0  0  0  0  0  0  0  0
    2.4059    1.1582   -0.0000 C   0  0  0  0  0  0  0  0  0  0  0  0
    3.7969    1.0576   -0.0001 C   0  0  0  0  0  0  0  0  0  0  0  0
    4.4112   -0.1990   -0.0001 C   0  0  0  0  0  0  0  0  0  0  0  0
    3.6256   -1.3565   -0.0000 C   0  0  0  0  0  0  0  0  0  0  0  0
    2.2345   -1.2598    0.0000 C   0  0  0  0  0  0  0  0  0  0  0  0
    0.1314    0.1039    0.0001 C   0  0  0  0  0  0  0  0  0  0  0  0
   -0.5810   -1.0304    0.0001 N   0  0  0  0  0  0  0  0  0  0  0  0
   -1.9093   -0.9300    0.0001 C   0  0  0  0  0  0  0  0  0  0  0  0
   -2.5822    0.2975    0.0001 C   0  0  0  0  0  0  0  0  0  0  0  0
   -1.7354    1.4180    0.0001 C   0  0  0  0  0  0  0  0  0  0  0  0
   -0.4123    1.3342    0.0000 N   0  0  0  0  0  0  0  0  0  0  0  0
   -2.1649    2.4291    0.0000 H   0  0  0  0  0  0  0  0  0  0  0  0
    1.9096    2.1291   -0.0000 H   0  0  0  0  0  0  0  0  0  0  0  0
    1.6058   -2.1506    0.0001 H   0  0  0  0  0  0  0  0  0  0  0  0
    4.4068    1.9644   -0.0001 H   0  0  0  0  0  0  0  0  0  0  0  0
    4.1015   -2.3402    0.0000 H   0  0  0  0  0  0  0  0  0  0  0  0
    5.5013   -0.2763   -0.0001 H   0  0  0  0  0  0  0  0  0  0  0  0
   -2.4638   -1.8743    0.0002 H   0  0  0  0  0  0  0  0  0  0  0  0
   -4.0848    0.4550    0.0001 C   0  0  0  0  0  0  0  0  0  0  0  0
   -4.3698    1.0630    0.8773 H   0  0  0  0  0  0  0  0  0  0  0  0
   -4.3698    1.0634   -0.8770 H   0  0  0  0  0  0  0  0  0  0  0  0
   -4.8876   -0.8435   -0.0002 C   0  0  0  0  0  0  0  0  0  0  0  0
   -4.6704   -1.4560    0.8892 H   0  0  0  0  0  0  0  0  0  0  0  0
   -5.9667   -0.6288   -0.0004 H   0  0  0  0  0  0  0  0  0  0  0  0
   -4.6701   -1.4557   -0.8898 H   0  0  0  0  0  0  0  0  0  0  0  0
  1  6  1  0  0  0  0
  1  7  1  0  0  0  0
  2  1  2  0  0  0  0
  3  4  2  0  0  0  0
  3  2  1  0  0  0  0
  4  5  1  0  0  0  0
  5 17  1  0  0  0  0
  5  6  2  0  0  0  0
  6 15  1  0  0  0  0
  7  8  2  0  0  0  0
  8  9  1  0  0  0  0
  9 19  1  0  0  0  0
 10  9  2  0  0  0  0
 11 10  1  0  0  0  0
 12 11  2  0  0  0  0
 12  7  1  0  0  0  0
 13 11  1  0  0  0  0
 14  2  1  0  0  0  0
 16  3  1  0  0  0  0
 18  4  1  0  0  0  0
 20 10  1  0  0  0  0
 20 21  1  0  0  0  0
 22 20  1  0  0  0  0
 23 20  1  0  0  0  0
 23 24  1  0  0  0  0
 25 23  1  0  0  0  0
 26 23  1  0  0  0  0
M  END
