Title Card Required
 OpenBabel11212310513D

 24 25  0  0  0  0  0  0  0  0999 V2000
   -0.2528   -0.0495   -0.0000 C   0  0  0  0  0  0  0  0  0  0  0  0
   -0.9544    1.1706    0.0003 C   0  0  0  0  0  0  0  0  0  0  0  0
   -2.3449    1.1975    0.0003 C   0  0  0  0  0  0  0  0  0  0  0  0
   -3.0982    0.0115   -0.0001 C   0  0  0  0  0  0  0  0  0  0  0  0
   -2.3991   -1.2028   -0.0005 C   0  0  0  0  0  0  0  0  0  0  0  0
   -1.0041   -1.2355   -0.0005 C   0  0  0  0  0  0  0  0  0  0  0  0
    1.2348   -0.0386   -0.0000 C   0  0  0  0  0  0  0  0  0  0  0  0
    1.9998   -1.2214    0.0004 C   0  0  0  0  0  0  0  0  0  0  0  0
    3.3900   -1.1374    0.0004 C   0  0  0  0  0  0  0  0  0  0  0  0
    3.9946    0.1208   -0.0000 C   0  0  0  0  0  0  0  0  0  0  0  0
    3.1584    1.2409   -0.0004 C   0  0  0  0  0  0  0  0  0  0  0  0
    1.8307    1.1665   -0.0004 N   0  0  0  0  0  0  0  0  0  0  0  0
    3.9949   -2.0476    0.0008 H   0  0  0  0  0  0  0  0  0  0  0  0
    1.5175   -2.1985    0.0009 H   0  0  0  0  0  0  0  0  0  0  0  0
    5.0803    0.2352   -0.0000 H   0  0  0  0  0  0  0  0  0  0  0  0
    3.5890    2.2496   -0.0007 H   0  0  0  0  0  0  0  0  0  0  0  0
   -0.5082   -2.2072   -0.0009 H   0  0  0  0  0  0  0  0  0  0  0  0
   -0.3738    2.0932    0.0006 H   0  0  0  0  0  0  0  0  0  0  0  0
   -2.9566   -2.1433   -0.0008 H   0  0  0  0  0  0  0  0  0  0  0  0
   -2.8626    2.1612    0.0006 H   0  0  0  0  0  0  0  0  0  0  0  0
   -4.6043    0.0553    0.0002 C   0  0  0  0  0  0  0  0  0  0  0  0
   -4.9875    0.5915   -0.8840 H   0  0  0  0  0  0  0  0  0  0  0  0
   -5.0394   -0.9547   -0.0025 H   0  0  0  0  0  0  0  0  0  0  0  0
   -4.9873    0.5866    0.8874 H   0  0  0  0  0  0  0  0  0  0  0  0
  1  7  1  0  0  0  0
  1  2  1  0  0  0  0
  2 18  1  0  0  0  0
  3  2  2  0  0  0  0
  3 20  1  0  0  0  0
  4 21  1  0  0  0  0
  4  3  1  0  0  0  0
  5  6  1  0  0  0  0
  5  4  2  0  0  0  0
  6  1  2  0  0  0  0
  7  8  1  0  0  0  0
  8 14  1  0  0  0  0
  9  8  2  0  0  0  0
  9 13  1  0  0  0  0
 10  9  1  0  0  0  0
 11 10  2  0  0  0  0
 12 11  1  0  0  0  0
 12  7  2  0  0  0  0
 15 10  1  0  0  0  0
 16 11  1  0  0  0  0
 17  6  1  0  0  0  0
 19  5  1  0  0  0  0
 21 24  1  0  0  0  0
 22 21  1  0  0  0  0
 23 21  1  0  0  0  0
M  END
