Title Card Required
 OpenBabel11212310513D

 24 25  0  0  0  0  0  0  0  0999 V2000
    0.6579    0.0849    0.0001 C   0  0  0  0  0  0  0  0  0  0  0  0
    1.2573   -1.1870    0.0009 C   0  0  0  0  0  0  0  0  0  0  0  0
    2.6442   -1.3335    0.0008 C   0  0  0  0  0  0  0  0  0  0  0  0
    3.4427   -0.1927   -0.0001 C   0  0  0  0  0  0  0  0  0  0  0  0
    2.8847    1.0838   -0.0008 C   0  0  0  0  0  0  0  0  0  0  0  0
    1.4982    1.2138   -0.0007 C   0  0  0  0  0  0  0  0  0  0  0  0
   -0.8182    0.2785    0.0001 C   0  0  0  0  0  0  0  0  0  0  0  0
   -1.7203   -0.8021   -0.0003 C   0  0  0  0  0  0  0  0  0  0  0  0
   -3.0985   -0.5742   -0.0003 C   0  0  0  0  0  0  0  0  0  0  0  0
   -3.5284    0.7609    0.0003 C   0  0  0  0  0  0  0  0  0  0  0  0
   -2.5691    1.7731    0.0006 C   0  0  0  0  0  0  0  0  0  0  0  0
   -1.2575    1.5470    0.0006 N   0  0  0  0  0  0  0  0  0  0  0  0
   -1.3556   -1.8296   -0.0009 H   0  0  0  0  0  0  0  0  0  0  0  0
   -4.5927    1.0087    0.0004 H   0  0  0  0  0  0  0  0  0  0  0  0
   -2.8813    2.8244    0.0010 H   0  0  0  0  0  0  0  0  0  0  0  0
    0.6452   -2.0894    0.0016 H   0  0  0  0  0  0  0  0  0  0  0  0
    1.0292    2.1976   -0.0012 H   0  0  0  0  0  0  0  0  0  0  0  0
    3.1151   -2.3179    0.0014 H   0  0  0  0  0  0  0  0  0  0  0  0
    3.5415    1.9556   -0.0014 H   0  0  0  0  0  0  0  0  0  0  0  0
    4.7765   -0.3273   -0.0002 F   0  0  0  0  0  0  0  0  0  0  0  0
   -4.0872   -1.7095   -0.0007 C   0  0  0  0  0  0  0  0  0  0  0  0
   -3.5840   -2.6869   -0.0014 H   0  0  0  0  0  0  0  0  0  0  0  0
   -4.7411   -1.6616    0.8853 H   0  0  0  0  0  0  0  0  0  0  0  0
   -4.7416   -1.6605   -0.8863 H   0  0  0  0  0  0  0  0  0  0  0  0
  1  7  1  0  0  0  0
  1  2  1  0  0  0  0
  2 16  1  0  0  0  0
  3  2  2  0  0  0  0
  3 18  1  0  0  0  0
  4  3  1  0  0  0  0
  5  6  1  0  0  0  0
  5  4  2  0  0  0  0
  6  1  2  0  0  0  0
  7 12  1  0  0  0  0
  8  9  1  0  0  0  0
  8  7  2  0  0  0  0
  9 10  2  0  0  0  0
 10 14  1  0  0  0  0
 10 11  1  0  0  0  0
 11 15  1  0  0  0  0
 12 11  2  0  0  0  0
 13  8  1  0  0  0  0
 17  6  1  0  0  0  0
 19  5  1  0  0  0  0
 20  4  1  0  0  0  0
 21  9  1  0  0  0  0
 21 23  1  0  0  0  0
 22 21  1  0  0  0  0
 24 21  1  0  0  0  0
M  END
