Title Card Required
 OpenBabel11212310513D

 25 26  0  0  0  0  0  0  0  0999 V2000
   -1.4904    0.0201    0.0000 C   0  0  0  0  0  0  0  0  0  0  0  0
   -1.9615   -1.3045   -0.0009 C   0  0  0  0  0  0  0  0  0  0  0  0
   -3.3299   -1.5771   -0.0009 C   0  0  0  0  0  0  0  0  0  0  0  0
   -4.2566   -0.5308    0.0001 C   0  0  0  0  0  0  0  0  0  0  0  0
   -3.8006    0.7908    0.0011 C   0  0  0  0  0  0  0  0  0  0  0  0
   -2.4332    1.0633    0.0010 C   0  0  0  0  0  0  0  0  0  0  0  0
   -0.0380    0.3523   -0.0002 C   0  0  0  0  0  0  0  0  0  0  0  0
    0.9505   -0.6381    0.0003 C   0  0  0  0  0  0  0  0  0  0  0  0
    2.3030   -0.2705    0.0001 C   0  0  0  0  0  0  0  0  0  0  0  0
    2.6256    1.0934   -0.0005 C   0  0  0  0  0  0  0  0  0  0  0  0
    1.5627    2.0033   -0.0009 C   0  0  0  0  0  0  0  0  0  0  0  0
    0.2810    1.6626   -0.0008 N   0  0  0  0  0  0  0  0  0  0  0  0
    0.7133   -1.7006    0.0008 H   0  0  0  0  0  0  0  0  0  0  0  0
    3.6530    1.4544   -0.0005 H   0  0  0  0  0  0  0  0  0  0  0  0
    1.7816    3.0781   -0.0014 H   0  0  0  0  0  0  0  0  0  0  0  0
   -1.2610   -2.1406   -0.0017 H   0  0  0  0  0  0  0  0  0  0  0  0
   -2.0598    2.0873    0.0017 H   0  0  0  0  0  0  0  0  0  0  0  0
   -3.6740   -2.6142   -0.0016 H   0  0  0  0  0  0  0  0  0  0  0  0
   -4.5167    1.6164    0.0019 H   0  0  0  0  0  0  0  0  0  0  0  0
   -5.3281   -0.7451    0.0001 H   0  0  0  0  0  0  0  0  0  0  0  0
    3.2018   -1.2763    0.0006 O   0  0  0  0  0  0  0  0  0  0  0  0
    4.5789   -0.9631    0.0005 C   0  0  0  0  0  0  0  0  0  0  0  0
    5.1164   -1.9201    0.0004 H   0  0  0  0  0  0  0  0  0  0  0  0
    4.8655   -0.3886   -0.8978 H   0  0  0  0  0  0  0  0  0  0  0  0
    4.8655   -0.3886    0.8988 H   0  0  0  0  0  0  0  0  0  0  0  0
  1  6  1  0  0  0  0
  2  3  1  0  0  0  0
  2  1  2  0  0  0  0
  3  4  2  0  0  0  0
  4  5  1  0  0  0  0
  5 19  1  0  0  0  0
  6  5  2  0  0  0  0
  6 17  1  0  0  0  0
  7  1  1  0  0  0  0
  7  8  1  0  0  0  0
  8 13  1  0  0  0  0
  9  8  2  0  0  0  0
  9 21  1  0  0  0  0
 10  9  1  0  0  0  0
 11 12  1  0  0  0  0
 11 10  2  0  0  0  0
 12  7  2  0  0  0  0
 14 10  1  0  0  0  0
 15 11  1  0  0  0  0
 16  2  1  0  0  0  0
 18  3  1  0  0  0  0
 20  4  1  0  0  0  0
 22 21  1  0  0  0  0
 22 25  1  0  0  0  0
 23 22  1  0  0  0  0
 24 22  1  0  0  0  0
M  END
