Title Card Required
 OpenBabel11212310513D

 21 22  0  0  0  0  0  0  0  0999 V2000
    0.1439    0.0533    0.0000 C   0  0  0  0  0  0  0  0  0  0  0  0
   -0.5553   -1.1671   -0.0003 C   0  0  0  0  0  0  0  0  0  0  0  0
   -1.9470   -1.2042   -0.0003 C   0  0  0  0  0  0  0  0  0  0  0  0
   -2.6654   -0.0052   -0.0000 C   0  0  0  0  0  0  0  0  0  0  0  0
   -1.9982    1.2221    0.0004 C   0  0  0  0  0  0  0  0  0  0  0  0
   -0.6044    1.2432    0.0004 C   0  0  0  0  0  0  0  0  0  0  0  0
    1.6320    0.0405    0.0000 C   0  0  0  0  0  0  0  0  0  0  0  0
    2.3988    1.2212   -0.0004 C   0  0  0  0  0  0  0  0  0  0  0  0
    3.7891    1.1326   -0.0004 C   0  0  0  0  0  0  0  0  0  0  0  0
    4.3892   -0.1274    0.0000 C   0  0  0  0  0  0  0  0  0  0  0  0
    3.5501   -1.2457    0.0003 C   0  0  0  0  0  0  0  0  0  0  0  0
    2.2228   -1.1665    0.0003 N   0  0  0  0  0  0  0  0  0  0  0  0
    1.9204    2.2002   -0.0007 H   0  0  0  0  0  0  0  0  0  0  0  0
    5.4745   -0.2450    0.0001 H   0  0  0  0  0  0  0  0  0  0  0  0
    3.9775   -2.2555    0.0006 H   0  0  0  0  0  0  0  0  0  0  0  0
    0.0258   -2.0893   -0.0005 H   0  0  0  0  0  0  0  0  0  0  0  0
   -0.1064    2.2135    0.0007 H   0  0  0  0  0  0  0  0  0  0  0  0
   -2.4812   -2.1554   -0.0006 H   0  0  0  0  0  0  0  0  0  0  0  0
   -2.5705    2.1506    0.0006 H   0  0  0  0  0  0  0  0  0  0  0  0
    4.3969    2.0407   -0.0007 H   0  0  0  0  0  0  0  0  0  0  0  0
   -4.4113   -0.0397   -0.0000 Cl  0  0  0  0  0  0  0  0  0  0  0  0
  1  6  1  0  0  0  0
  2  1  2  0  0  0  0
  3  2  1  0  0  0  0
  3  4  2  0  0  0  0
  4  5  1  0  0  0  0
  5  6  2  0  0  0  0
  5 19  1  0  0  0  0
  6 17  1  0  0  0  0
  7  1  1  0  0  0  0
  7 12  1  0  0  0  0
  8  9  1  0  0  0  0
  8  7  2  0  0  0  0
  9 10  2  0  0  0  0
 10 14  1  0  0  0  0
 10 11  1  0  0  0  0
 11 12  2  0  0  0  0
 11 15  1  0  0  0  0
 13  8  1  0  0  0  0
 16  2  1  0  0  0  0
 18  3  1  0  0  0  0
 20  9  1  0  0  0  0
 21  4  1  0  0  0  0
M  END
