Title Card Required
 OpenBabel11212310513D

 24 25  0  0  0  0  0  0  0  0999 V2000
   -0.6519   -0.2186   -0.0437 C   0  0  0  0  0  0  0  0  0  0  0  0
   -1.2774   -1.4529   -0.2911 C   0  0  0  0  0  0  0  0  0  0  0  0
   -2.6659   -1.5753   -0.3243 C   0  0  0  0  0  0  0  0  0  0  0  0
   -3.4554   -0.4474   -0.0984 C   0  0  0  0  0  0  0  0  0  0  0  0
   -2.8449    0.7822    0.1550 C   0  0  0  0  0  0  0  0  0  0  0  0
   -1.4505    0.9299    0.1847 C   0  0  0  0  0  0  0  0  0  0  0  0
    0.8364   -0.1690   -0.0258 C   0  0  0  0  0  0  0  0  0  0  0  0
    1.5803   -1.2005    0.5807 C   0  0  0  0  0  0  0  0  0  0  0  0
    2.9720   -1.1465    0.5498 C   0  0  0  0  0  0  0  0  0  0  0  0
    3.5912   -0.0653   -0.0800 C   0  0  0  0  0  0  0  0  0  0  0  0
    2.7733    0.9183   -0.6426 C   0  0  0  0  0  0  0  0  0  0  0  0
    1.4420    0.8726   -0.6183 N   0  0  0  0  0  0  0  0  0  0  0  0
    1.0663   -2.0208    1.0838 H   0  0  0  0  0  0  0  0  0  0  0  0
    4.6785    0.0213   -0.1292 H   0  0  0  0  0  0  0  0  0  0  0  0
    3.2203    1.7878   -1.1392 H   0  0  0  0  0  0  0  0  0  0  0  0
   -0.6572   -2.3303   -0.4879 H   0  0  0  0  0  0  0  0  0  0  0  0
   -3.1258   -2.5445   -0.5309 H   0  0  0  0  0  0  0  0  0  0  0  0
    3.5659   -1.9350    1.0190 H   0  0  0  0  0  0  0  0  0  0  0  0
   -4.5454   -0.5217   -0.1178 H   0  0  0  0  0  0  0  0  0  0  0  0
   -3.4672    1.6616    0.3415 H   0  0  0  0  0  0  0  0  0  0  0  0
   -0.8618    2.2872    0.4757 C   0  0  0  0  0  0  0  0  0  0  0  0
   -0.0703    2.2318    1.2384 H   0  0  0  0  0  0  0  0  0  0  0  0
   -0.3887    2.7126   -0.4206 H   0  0  0  0  0  0  0  0  0  0  0  0
   -1.6414    2.9766    0.8320 H   0  0  0  0  0  0  0  0  0  0  0  0
  1  7  1  0  0  0  0
  1  6  1  0  0  0  0
  2  1  2  0  0  0  0
  3  2  1  0  0  0  0
  3  4  2  0  0  0  0
  4  5  1  0  0  0  0
  5  6  2  0  0  0  0
  5 20  1  0  0  0  0
  6 21  1  0  0  0  0
  7  8  1  0  0  0  0
  8 13  1  0  0  0  0
  9  8  2  0  0  0  0
  9 18  1  0  0  0  0
 10  9  1  0  0  0  0
 11 12  1  0  0  0  0
 11 10  2  0  0  0  0
 12  7  2  0  0  0  0
 14 10  1  0  0  0  0
 15 11  1  0  0  0  0
 16  2  1  0  0  0  0
 17  3  1  0  0  0  0
 19  4  1  0  0  0  0
 21 24  1  0  0  0  0
 21 22  1  0  0  0  0
 23 21  1  0  0  0  0
M  END
