Title Card Required
 OpenBabel11212310513D

 29 30  0  0  0  0  0  0  0  0999 V2000
    1.7368    0.0799    0.0195 C   0  0  0  0  0  0  0  0  0  0  0  0
    2.7635    1.0196   -0.1812 C   0  0  0  0  0  0  0  0  0  0  0  0
    4.0999    0.6235   -0.2127 C   0  0  0  0  0  0  0  0  0  0  0  0
    4.4420   -0.7209   -0.0375 C   0  0  0  0  0  0  0  0  0  0  0  0
    3.4324   -1.6639    0.1736 C   0  0  0  0  0  0  0  0  0  0  0  0
    2.0946   -1.2672    0.2026 C   0  0  0  0  0  0  0  0  0  0  0  0
    0.3199    0.5451    0.0370 C   0  0  0  0  0  0  0  0  0  0  0  0
   -0.7472   -0.3600   -0.0187 C   0  0  0  0  0  0  0  0  0  0  0  0
   -2.0820    0.1051    0.0071 C   0  0  0  0  0  0  0  0  0  0  0  0
   -2.2550    1.5080    0.0783 C   0  0  0  0  0  0  0  0  0  0  0  0
   -1.1247    2.3191    0.1151 C   0  0  0  0  0  0  0  0  0  0  0  0
    0.1299    1.8751    0.0975 N   0  0  0  0  0  0  0  0  0  0  0  0
   -0.5421   -1.4235   -0.0988 H   0  0  0  0  0  0  0  0  0  0  0  0
   -3.2422    1.9661    0.0988 H   0  0  0  0  0  0  0  0  0  0  0  0
   -1.2534    3.4074    0.1633 H   0  0  0  0  0  0  0  0  0  0  0  0
    4.8819    1.3698   -0.3748 H   0  0  0  0  0  0  0  0  0  0  0  0
    5.4893   -1.0319   -0.0607 H   0  0  0  0  0  0  0  0  0  0  0  0
    3.6877   -2.7160    0.3230 H   0  0  0  0  0  0  0  0  0  0  0  0
    1.3276   -2.0206    0.3889 H   0  0  0  0  0  0  0  0  0  0  0  0
    2.4780    2.0639   -0.3085 H   0  0  0  0  0  0  0  0  0  0  0  0
   -3.1494   -0.7580   -0.0402 N   0  0  0  0  0  0  0  0  0  0  0  0
   -4.5001   -0.2358   -0.0421 C   0  0  0  0  0  0  0  0  0  0  0  0
   -4.6938    0.4143   -0.9150 H   0  0  0  0  0  0  0  0  0  0  0  0
   -5.2125   -1.0693   -0.0784 H   0  0  0  0  0  0  0  0  0  0  0  0
   -4.7160    0.3535    0.8671 H   0  0  0  0  0  0  0  0  0  0  0  0
   -2.9234   -2.1853   -0.1313 C   0  0  0  0  0  0  0  0  0  0  0  0
   -2.3375   -2.5645    0.7250 H   0  0  0  0  0  0  0  0  0  0  0  0
   -3.8884   -2.7071   -0.1344 H   0  0  0  0  0  0  0  0  0  0  0  0
   -2.3834   -2.4647   -1.0547 H   0  0  0  0  0  0  0  0  0  0  0  0
  1  7  1  0  0  0  0
  1  6  1  0  0  0  0
  2  1  2  0  0  0  0
  3  2  1  0  0  0  0
  3  4  2  0  0  0  0
  4  5  1  0  0  0  0
  5  6  2  0  0  0  0
  5 18  1  0  0  0  0
  6 19  1  0  0  0  0
  7 12  1  0  0  0  0
  8  9  1  0  0  0  0
  8  7  2  0  0  0  0
  9 10  2  0  0  0  0
 10 14  1  0  0  0  0
 10 11  1  0  0  0  0
 11 15  1  0  0  0  0
 12 11  2  0  0  0  0
 13  8  1  0  0  0  0
 16  3  1  0  0  0  0
 17  4  1  0  0  0  0
 20  2  1  0  0  0  0
 21  9  1  0  0  0  0
 22 21  1  0  0  0  0
 22 25  1  0  0  0  0
 23 22  1  0  0  0  0
 24 22  1  0  0  0  0
 26 21  1  0  0  0  0
 26 27  1  0  0  0  0
 28 26  1  0  0  0  0
 29 26  1  0  0  0  0
M  END
