Title Card Required
 OpenBabel11212310513D

 24 25  0  0  0  0  0  0  0  0999 V2000
    1.9861    0.0692   -0.0007 C   0  0  0  0  0  0  0  0  0  0  0  0
    2.2875   -1.3041    0.0144 C   0  0  0  0  0  0  0  0  0  0  0  0
    3.6114   -1.7443    0.0148 C   0  0  0  0  0  0  0  0  0  0  0  0
    4.6601   -0.8207   -0.0000 C   0  0  0  0  0  0  0  0  0  0  0  0
    4.3729    0.5477   -0.0142 C   0  0  0  0  0  0  0  0  0  0  0  0
    3.0507    0.9883   -0.0141 C   0  0  0  0  0  0  0  0  0  0  0  0
    0.5876    0.5764   -0.0019 C   0  0  0  0  0  0  0  0  0  0  0  0
   -0.5243   -0.2878   -0.0270 C   0  0  0  0  0  0  0  0  0  0  0  0
   -1.8058    0.2544   -0.0269 C   0  0  0  0  0  0  0  0  0  0  0  0
   -1.9650    1.6423   -0.0070 C   0  0  0  0  0  0  0  0  0  0  0  0
   -0.8056    2.4197    0.0151 C   0  0  0  0  0  0  0  0  0  0  0  0
    0.4222    1.9088    0.0189 N   0  0  0  0  0  0  0  0  0  0  0  0
   -0.4012   -1.3683   -0.0555 H   0  0  0  0  0  0  0  0  0  0  0  0
   -2.9538    2.1023   -0.0157 H   0  0  0  0  0  0  0  0  0  0  0  0
   -0.8796    3.5131    0.0287 H   0  0  0  0  0  0  0  0  0  0  0  0
    3.8241   -2.8158    0.0275 H   0  0  0  0  0  0  0  0  0  0  0  0
    5.6965   -1.1666    0.0001 H   0  0  0  0  0  0  0  0  0  0  0  0
    5.1863    1.2772   -0.0254 H   0  0  0  0  0  0  0  0  0  0  0  0
    2.8103    2.0513   -0.0242 H   0  0  0  0  0  0  0  0  0  0  0  0
    1.4899   -2.0479    0.0292 H   0  0  0  0  0  0  0  0  0  0  0  0
   -3.0206   -0.6419   -0.0052 C   0  0  0  0  0  0  0  0  0  0  0  0
   -3.9935   -0.1681   -0.8009 F   0  0  0  0  0  0  0  0  0  0  0  0
   -2.7338   -1.8896   -0.4099 F   0  0  0  0  0  0  0  0  0  0  0  0
   -3.5324   -0.7314    1.2353 F   0  0  0  0  0  0  0  0  0  0  0  0
  1  2  1  0  0  0  0
  2  3  2  0  0  0  0
  2 20  1  0  0  0  0
  3 16  1  0  0  0  0
  4 17  1  0  0  0  0
  4  3  1  0  0  0  0
  5  6  1  0  0  0  0
  5  4  2  0  0  0  0
  6  1  2  0  0  0  0
  7  1  1  0  0  0  0
  7 12  1  0  0  0  0
  8  9  1  0  0  0  0
  8  7  2  0  0  0  0
  9 10  2  0  0  0  0
  9 21  1  0  0  0  0
 10 11  1  0  0  0  0
 11 12  2  0  0  0  0
 11 15  1  0  0  0  0
 13  8  1  0  0  0  0
 14 10  1  0  0  0  0
 18  5  1  0  0  0  0
 19  6  1  0  0  0  0
 21 24  1  0  0  0  0
 22 21  1  0  0  0  0
 23 21  1  0  0  0  0
M  END
