Title Card Required
 OpenBabel11212310513D

 23 24  0  0  0  0  0  0  0  0999 V2000
   -0.4860    0.0385    0.0015 C   0  0  0  0  0  0  0  0  0  0  0  0
    0.3164   -1.0940    0.1505 C   0  0  0  0  0  0  0  0  0  0  0  0
    1.7108   -0.9859    0.1265 C   0  0  0  0  0  0  0  0  0  0  0  0
    2.3137    0.2695   -0.0307 C   0  0  0  0  0  0  0  0  0  0  0  0
    1.4999    1.4085   -0.1631 C   0  0  0  0  0  0  0  0  0  0  0  0
    0.1169    1.2972   -0.1512 C   0  0  0  0  0  0  0  0  0  0  0  0
   -1.9011   -0.0633    0.0024 N   0  0  0  0  0  0  0  0  0  0  0  0
   -0.1349   -2.0749    0.3051 H   0  0  0  0  0  0  0  0  0  0  0  0
   -0.5218    2.1737   -0.2529 H   0  0  0  0  0  0  0  0  0  0  0  0
    2.3102   -1.8876    0.2460 H   0  0  0  0  0  0  0  0  0  0  0  0
    1.9846    2.3792   -0.2808 H   0  0  0  0  0  0  0  0  0  0  0  0
   -2.6639   -1.1660   -0.2674 C   0  0  0  0  0  0  0  0  0  0  0  0
   -3.9150    0.5983    0.1923 C   0  0  0  0  0  0  0  0  0  0  0  0
   -3.9846   -0.7757   -0.1498 C   0  0  0  0  0  0  0  0  0  0  0  0
   -2.2195   -2.1179   -0.5429 H   0  0  0  0  0  0  0  0  0  0  0  0
   -4.7325    1.2943    0.3789 H   0  0  0  0  0  0  0  0  0  0  0  0
   -4.8687   -1.3903   -0.2995 H   0  0  0  0  0  0  0  0  0  0  0  0
   -2.6585    1.0163    0.2808 N   0  0  0  0  0  0  0  0  0  0  0  0
    3.6529    0.4812   -0.0617 O   0  0  0  0  0  0  0  0  0  0  0  0
    4.5202   -0.6206    0.0673 C   0  0  0  0  0  0  0  0  0  0  0  0
    4.3748   -1.3550   -0.7458 H   0  0  0  0  0  0  0  0  0  0  0  0
    5.5427   -0.2246    0.0106 H   0  0  0  0  0  0  0  0  0  0  0  0
    4.3888   -1.1356    1.0363 H   0  0  0  0  0  0  0  0  0  0  0  0
  1  7  1  0  0  0  0
  1  2  1  0  0  0  0
  2  8  1  0  0  0  0
  3  2  2  0  0  0  0
  3 10  1  0  0  0  0
  4  3  1  0  0  0  0
  5  6  1  0  0  0  0
  5  4  2  0  0  0  0
  6  1  2  0  0  0  0
  7 18  1  0  0  0  0
  9  6  1  0  0  0  0
 11  5  1  0  0  0  0
 12 14  2  0  0  0  0
 12  7  1  0  0  0  0
 13 18  2  0  0  0  0
 13 16  1  0  0  0  0
 14 13  1  0  0  0  0
 15 12  1  0  0  0  0
 17 14  1  0  0  0  0
 19  4  1  0  0  0  0
 19 20  1  0  0  0  0
 20 23  1  0  0  0  0
 21 20  1  0  0  0  0
 22 20  1  0  0  0  0
M  END
