Title Card Required
 OpenBabel11212310513D

 22 23  0  0  0  0  0  0  0  0999 V2000
    0.0728    0.0334   -0.0093 C   0  0  0  0  0  0  0  0  0  0  0  0
   -0.6490    1.2235   -0.1463 C   0  0  0  0  0  0  0  0  0  0  0  0
   -2.0451    1.1949   -0.1315 C   0  0  0  0  0  0  0  0  0  0  0  0
   -2.7518   -0.0066    0.0041 C   0  0  0  0  0  0  0  0  0  0  0  0
   -2.0056   -1.1908    0.1258 C   0  0  0  0  0  0  0  0  0  0  0  0
   -0.6139   -1.1813    0.1233 C   0  0  0  0  0  0  0  0  0  0  0  0
    1.4908    0.0380   -0.0028 N   0  0  0  0  0  0  0  0  0  0  0  0
   -0.1328    2.1745   -0.2822 H   0  0  0  0  0  0  0  0  0  0  0  0
   -0.0366   -2.1000    0.2179 H   0  0  0  0  0  0  0  0  0  0  0  0
   -2.5951    2.1333   -0.2399 H   0  0  0  0  0  0  0  0  0  0  0  0
   -2.5282   -2.1458    0.2299 H   0  0  0  0  0  0  0  0  0  0  0  0
    2.3280    1.0984    0.2159 C   0  0  0  0  0  0  0  0  0  0  0  0
    3.4550   -0.7705   -0.1396 C   0  0  0  0  0  0  0  0  0  0  0  0
    3.6180    0.6121    0.1321 C   0  0  0  0  0  0  0  0  0  0  0  0
    1.9516    2.0933    0.4339 H   0  0  0  0  0  0  0  0  0  0  0  0
    4.2235   -1.5298   -0.2826 H   0  0  0  0  0  0  0  0  0  0  0  0
    4.5418    1.1713    0.2575 H   0  0  0  0  0  0  0  0  0  0  0  0
    2.1742   -1.1048   -0.2174 N   0  0  0  0  0  0  0  0  0  0  0  0
   -4.2586   -0.0402    0.0163 C   0  0  0  0  0  0  0  0  0  0  0  0
   -4.6414   -0.4568    0.9629 H   0  0  0  0  0  0  0  0  0  0  0  0
   -4.6862    0.9656   -0.1053 H   0  0  0  0  0  0  0  0  0  0  0  0
   -4.6512   -0.6745   -0.7957 H   0  0  0  0  0  0  0  0  0  0  0  0
  1  7  1  0  0  0  0
  1  6  1  0  0  0  0
  2  3  1  0  0  0  0
  2  1  2  0  0  0  0
  3  4  2  0  0  0  0
  4 19  1  0  0  0  0
  4  5  1  0  0  0  0
  5 11  1  0  0  0  0
  6  5  2  0  0  0  0
  6  9  1  0  0  0  0
  7 12  1  0  0  0  0
  8  2  1  0  0  0  0
 10  3  1  0  0  0  0
 12 15  1  0  0  0  0
 13 14  1  0  0  0  0
 14 12  2  0  0  0  0
 14 17  1  0  0  0  0
 16 13  1  0  0  0  0
 18 13  2  0  0  0  0
 18  7  1  0  0  0  0
 19 20  1  0  0  0  0
 21 19  1  0  0  0  0
 22 19  1  0  0  0  0
M  END
