Title Card Required
 OpenBabel11212310513D

 24 25  0  0  0  0  0  0  0  0999 V2000
    1.0862    0.0278    0.0076 C   0  0  0  0  0  0  0  0  0  0  0  0
    1.6449   -1.2592    0.0980 C   0  0  0  0  0  0  0  0  0  0  0  0
    3.0284   -1.4416    0.0856 C   0  0  0  0  0  0  0  0  0  0  0  0
    3.8830   -0.3407   -0.0172 C   0  0  0  0  0  0  0  0  0  0  0  0
    3.3399    0.9450   -0.1036 C   0  0  0  0  0  0  0  0  0  0  0  0
    1.9581    1.1273   -0.0893 C   0  0  0  0  0  0  0  0  0  0  0  0
   -0.3846    0.2642    0.0148 C   0  0  0  0  0  0  0  0  0  0  0  0
   -1.3152   -0.7904   -0.0418 C   0  0  0  0  0  0  0  0  0  0  0  0
   -2.6870   -0.5263   -0.0298 C   0  0  0  0  0  0  0  0  0  0  0  0
   -3.0808    0.8181    0.0356 C   0  0  0  0  0  0  0  0  0  0  0  0
   -2.0947    1.8035    0.0803 C   0  0  0  0  0  0  0  0  0  0  0  0
   -0.7896    1.5429    0.0709 N   0  0  0  0  0  0  0  0  0  0  0  0
   -0.9759   -1.8246   -0.1053 H   0  0  0  0  0  0  0  0  0  0  0  0
   -4.1381    1.0942    0.0473 H   0  0  0  0  0  0  0  0  0  0  0  0
   -2.3791    2.8616    0.1263 H   0  0  0  0  0  0  0  0  0  0  0  0
    1.0024   -2.1359    0.1906 H   0  0  0  0  0  0  0  0  0  0  0  0
    1.5183    2.1227   -0.1517 H   0  0  0  0  0  0  0  0  0  0  0  0
    3.4410   -2.4507    0.1600 H   0  0  0  0  0  0  0  0  0  0  0  0
    3.9995    1.8129   -0.1824 H   0  0  0  0  0  0  0  0  0  0  0  0
    4.9662   -0.4843   -0.0276 H   0  0  0  0  0  0  0  0  0  0  0  0
   -3.7055   -1.6337   -0.0842 C   0  0  0  0  0  0  0  0  0  0  0  0
   -3.2291   -2.6193   -0.1853 H   0  0  0  0  0  0  0  0  0  0  0  0
   -4.3216   -1.6449    0.8300 H   0  0  0  0  0  0  0  0  0  0  0  0
   -4.3935   -1.4959   -0.9340 H   0  0  0  0  0  0  0  0  0  0  0  0
  1  7  1  0  0  0  0
  1  2  1  0  0  0  0
  2 16  1  0  0  0  0
  3  2  2  0  0  0  0
  3 18  1  0  0  0  0
  4  3  1  0  0  0  0
  5  6  1  0  0  0  0
  5  4  2  0  0  0  0
  6  1  2  0  0  0  0
  7 12  1  0  0  0  0
  8  9  1  0  0  0  0
  8  7  2  0  0  0  0
  9 10  2  0  0  0  0
 10 14  1  0  0  0  0
 10 11  1  0  0  0  0
 11 15  1  0  0  0  0
 12 11  2  0  0  0  0
 13  8  1  0  0  0  0
 17  6  1  0  0  0  0
 19  5  1  0  0  0  0
 20  4  1  0  0  0  0
 21  9  1  0  0  0  0
 21 23  1  0  0  0  0
 22 21  1  0  0  0  0
 24 21  1  0  0  0  0
M  END
