Title Card Required
 OpenBabel11212310513D

 20 21  0  0  0  0  0  0  0  0999 V2000
    0.2729    0.0000   -0.0000 C   0  0  0  0  0  0  0  0  0  0  0  0
    0.9849   -1.2118    0.0001 C   0  0  0  0  0  0  0  0  0  0  0  0
    2.3778   -1.2179    0.0003 C   0  0  0  0  0  0  0  0  0  0  0  0
    3.0561   -0.0000    0.0000 C   0  0  0  0  0  0  0  0  0  0  0  0
    2.3778    1.2180   -0.0003 C   0  0  0  0  0  0  0  0  0  0  0  0
    0.9849    1.2118   -0.0002 C   0  0  0  0  0  0  0  0  0  0  0  0
   -1.2085    0.0000   -0.0001 C   0  0  0  0  0  0  0  0  0  0  0  0
   -1.8336    1.1896    0.0001 N   0  0  0  0  0  0  0  0  0  0  0  0
   -3.1635    1.1836    0.0003 C   0  0  0  0  0  0  0  0  0  0  0  0
   -3.9047   -0.0000    0.0002 C   0  0  0  0  0  0  0  0  0  0  0  0
   -3.1635   -1.1837   -0.0005 C   0  0  0  0  0  0  0  0  0  0  0  0
   -1.8336   -1.1896   -0.0002 N   0  0  0  0  0  0  0  0  0  0  0  0
   -3.6618    2.1606    0.0004 H   0  0  0  0  0  0  0  0  0  0  0  0
   -4.9956   -0.0000    0.0005 H   0  0  0  0  0  0  0  0  0  0  0  0
   -3.6618   -2.1606    0.0001 H   0  0  0  0  0  0  0  0  0  0  0  0
    0.4230   -2.1460    0.0002 H   0  0  0  0  0  0  0  0  0  0  0  0
    0.4230    2.1461   -0.0002 H   0  0  0  0  0  0  0  0  0  0  0  0
    2.9482   -2.1484    0.0004 H   0  0  0  0  0  0  0  0  0  0  0  0
    2.9482    2.1484   -0.0003 H   0  0  0  0  0  0  0  0  0  0  0  0
    4.3957   -0.0000    0.0001 F   0  0  0  0  0  0  0  0  0  0  0  0
  1  2  1  0  0  0  0
  2 16  1  0  0  0  0
  2  3  2  0  0  0  0
  3 18  1  0  0  0  0
  4 20  1  0  0  0  0
  4  3  1  0  0  0  0
  5  6  1  0  0  0  0
  5  4  2  0  0  0  0
  6  1  2  0  0  0  0
  7  1  1  0  0  0  0
  7  8  2  0  0  0  0
  8  9  1  0  0  0  0
  9 13  1  0  0  0  0
 10  9  2  0  0  0  0
 10 14  1  0  0  0  0
 11 12  2  0  0  0  0
 11 15  1  0  0  0  0
 11 10  1  0  0  0  0
 12  7  1  0  0  0  0
 17  6  1  0  0  0  0
 19  5  1  0  0  0  0
M  END
