Title Card Required
 OpenBabel11212310513D

 18 19  0  0  0  0  0  0  0  0999 V2000
   -1.1670    0.0491   -0.0002 C   0  0  0  0  0  0  0  0  0  0  0  0
   -0.4393    1.2519   -0.0005 C   0  0  0  0  0  0  0  0  0  0  0  0
    0.9528    1.2358   -0.0004 C   0  0  0  0  0  0  0  0  0  0  0  0
    1.6246    0.0085   -0.0001 C   0  0  0  0  0  0  0  0  0  0  0  0
    0.9185   -1.1975    0.0001 C   0  0  0  0  0  0  0  0  0  0  0  0
   -0.4754   -1.1735    0.0001 C   0  0  0  0  0  0  0  0  0  0  0  0
   -2.6247    0.0985   -0.0003 C   0  0  0  0  0  0  0  0  0  0  0  0
   -4.6335   -0.7105    0.0001 C   0  0  0  0  0  0  0  0  0  0  0  0
   -4.6842    0.6521    0.0007 C   0  0  0  0  0  0  0  0  0  0  0  0
   -5.3678   -1.5100    0.0001 H   0  0  0  0  0  0  0  0  0  0  0  0
   -5.5577    1.3013    0.0013 H   0  0  0  0  0  0  0  0  0  0  0  0
   -3.3190   -1.0718   -0.0007 O   0  0  0  0  0  0  0  0  0  0  0  0
   -3.3966    1.1492    0.0004 N   0  0  0  0  0  0  0  0  0  0  0  0
   -1.0350   -2.1099    0.0002 H   0  0  0  0  0  0  0  0  0  0  0  0
   -0.9853    2.1965   -0.0008 H   0  0  0  0  0  0  0  0  0  0  0  0
    1.4558   -2.1467    0.0004 H   0  0  0  0  0  0  0  0  0  0  0  0
    1.5176    2.1689   -0.0006 H   0  0  0  0  0  0  0  0  0  0  0  0
    3.5277   -0.0188    0.0001 Br  0  0  0  0  0  0  0  0  0  0  0  0
  1  6  1  0  0  0  0
  2  3  1  0  0  0  0
  2  1  2  0  0  0  0
  3  4  2  0  0  0  0
  4 18  1  0  0  0  0
  4  5  1  0  0  0  0
  5 16  1  0  0  0  0
  6  5  2  0  0  0  0
  6 14  1  0  0  0  0
  7  1  1  0  0  0  0
  7 13  2  0  0  0  0
  8 10  1  0  0  0  0
  8  9  2  0  0  0  0
  9 11  1  0  0  0  0
 12  7  1  0  0  0  0
 12  8  1  0  0  0  0
 13  9  1  0  0  0  0
 15  2  1  0  0  0  0
 17  3  1  0  0  0  0
M  END
