Title Card Required
 OpenBabel11212310513D

 21 22  0  0  0  0  0  0  0  0999 V2000
   -1.0620    0.0276   -0.0000 C   0  0  0  0  0  0  0  0  0  0  0  0
   -1.6518   -1.2486   -0.0005 C   0  0  0  0  0  0  0  0  0  0  0  0
   -3.0393   -1.3945   -0.0004 C   0  0  0  0  0  0  0  0  0  0  0  0
   -3.8655   -0.2673    0.0001 C   0  0  0  0  0  0  0  0  0  0  0  0
   -3.2908    1.0074    0.0005 C   0  0  0  0  0  0  0  0  0  0  0  0
   -1.9046    1.1536    0.0004 C   0  0  0  0  0  0  0  0  0  0  0  0
    0.4132    0.2244   -0.0001 C   0  0  0  0  0  0  0  0  0  0  0  0
    1.3098   -0.8600    0.0002 C   0  0  0  0  0  0  0  0  0  0  0  0
    2.6710   -0.5877    0.0002 C   0  0  0  0  0  0  0  0  0  0  0  0
    3.1380    0.7228   -0.0002 C   0  0  0  0  0  0  0  0  0  0  0  0
    2.1661    1.7268   -0.0004 C   0  0  0  0  0  0  0  0  0  0  0  0
    0.8570    1.4935   -0.0004 N   0  0  0  0  0  0  0  0  0  0  0  0
    0.9806   -1.8977    0.0006 H   0  0  0  0  0  0  0  0  0  0  0  0
    4.2064    0.9408   -0.0002 H   0  0  0  0  0  0  0  0  0  0  0  0
    2.4751    2.7785   -0.0007 H   0  0  0  0  0  0  0  0  0  0  0  0
   -1.0318   -2.1461   -0.0010 H   0  0  0  0  0  0  0  0  0  0  0  0
   -1.4401    2.1396    0.0008 H   0  0  0  0  0  0  0  0  0  0  0  0
   -3.4772   -2.3954   -0.0008 H   0  0  0  0  0  0  0  0  0  0  0  0
   -3.9284    1.8948    0.0009 H   0  0  0  0  0  0  0  0  0  0  0  0
   -4.9520   -0.3825    0.0001 H   0  0  0  0  0  0  0  0  0  0  0  0
    3.5404   -1.6015    0.0005 F   0  0  0  0  0  0  0  0  0  0  0  0
  1  6  1  0  0  0  0
  2  3  1  0  0  0  0
  2  1  2  0  0  0  0
  3  4  2  0  0  0  0
  4 20  1  0  0  0  0
  4  5  1  0  0  0  0
  5 19  1  0  0  0  0
  6  5  2  0  0  0  0
  6 17  1  0  0  0  0
  7  1  1  0  0  0  0
  7  8  1  0  0  0  0
  8 13  1  0  0  0  0
  9  8  2  0  0  0  0
  9 21  1  0  0  0  0
 10  9  1  0  0  0  0
 11 12  1  0  0  0  0
 11 10  2  0  0  0  0
 12  7  2  0  0  0  0
 14 10  1  0  0  0  0
 15 11  1  0  0  0  0
 16  2  1  0  0  0  0
 18  3  1  0  0  0  0
M  END
