Title Card Required
 OpenBabel11212310513D

 21 22  0  0  0  0  0  0  0  0999 V2000
   -0.0533    0.0415   -0.0000 C   0  0  0  0  0  0  0  0  0  0  0  0
    0.6326   -1.1824   -0.0001 C   0  0  0  0  0  0  0  0  0  0  0  0
    2.0274   -1.2046   -0.0001 C   0  0  0  0  0  0  0  0  0  0  0  0
    2.7742   -0.0182   -0.0001 C   0  0  0  0  0  0  0  0  0  0  0  0
    2.0754    1.2024   -0.0000 C   0  0  0  0  0  0  0  0  0  0  0  0
    0.6857    1.2385   -0.0000 C   0  0  0  0  0  0  0  0  0  0  0  0
   -1.5107    0.1008   -0.0000 C   0  0  0  0  0  0  0  0  0  0  0  0
   -3.5259   -0.6966    0.0001 C   0  0  0  0  0  0  0  0  0  0  0  0
   -3.5682    0.6659    0.0000 C   0  0  0  0  0  0  0  0  0  0  0  0
   -4.2648   -1.4917    0.0001 H   0  0  0  0  0  0  0  0  0  0  0  0
   -4.4380    1.3201   -0.0000 H   0  0  0  0  0  0  0  0  0  0  0  0
   -2.2131   -1.0656    0.0001 O   0  0  0  0  0  0  0  0  0  0  0  0
   -2.2776    1.1559   -0.0001 N   0  0  0  0  0  0  0  0  0  0  0  0
    0.0680   -2.1160   -0.0002 H   0  0  0  0  0  0  0  0  0  0  0  0
    0.1460    2.1869   -0.0000 H   0  0  0  0  0  0  0  0  0  0  0  0
    2.5481   -2.1658   -0.0002 H   0  0  0  0  0  0  0  0  0  0  0  0
    2.6365    2.1410   -0.0000 H   0  0  0  0  0  0  0  0  0  0  0  0
    4.2809   -0.0370    0.0001 C   0  0  0  0  0  0  0  0  0  0  0  0
    4.6852    0.4798    0.8864 H   0  0  0  0  0  0  0  0  0  0  0  0
    4.6734   -1.0641   -0.0007 H   0  0  0  0  0  0  0  0  0  0  0  0
    4.6855    0.4814   -0.8851 H   0  0  0  0  0  0  0  0  0  0  0  0
  1  7  1  0  0  0  0
  1  6  1  0  0  0  0
  2  1  2  0  0  0  0
  3  2  1  0  0  0  0
  3  4  2  0  0  0  0
  4  5  1  0  0  0  0
  4 18  1  0  0  0  0
  5 17  1  0  0  0  0
  5  6  2  0  0  0  0
  7 12  1  0  0  0  0
  8 12  1  0  0  0  0
  8 10  1  0  0  0  0
  9  8  2  0  0  0  0
 11  9  1  0  0  0  0
 13  7  2  0  0  0  0
 13  9  1  0  0  0  0
 14  2  1  0  0  0  0
 15  6  1  0  0  0  0
 16  3  1  0  0  0  0
 18 19  1  0  0  0  0
 20 18  1  0  0  0  0
 21 18  1  0  0  0  0
M  END
