Title Card Required
 OpenBabel11212310513D

 18 19  0  0  0  0  0  0  0  0999 V2000
   -0.0124    0.0424    0.0001 C   0  0  0  0  0  0  0  0  0  0  0  0
    0.6714   -1.1854    0.0001 C   0  0  0  0  0  0  0  0  0  0  0  0
    2.0649   -1.2175    0.0001 C   0  0  0  0  0  0  0  0  0  0  0  0
    2.7675   -0.0143   -0.0000 C   0  0  0  0  0  0  0  0  0  0  0  0
    2.1136    1.2177   -0.0001 C   0  0  0  0  0  0  0  0  0  0  0  0
    0.7219    1.2421   -0.0000 C   0  0  0  0  0  0  0  0  0  0  0  0
   -1.4700    0.1007    0.0002 C   0  0  0  0  0  0  0  0  0  0  0  0
   -3.4842   -0.6967   -0.0003 C   0  0  0  0  0  0  0  0  0  0  0  0
   -3.5266    0.6657   -0.0001 C   0  0  0  0  0  0  0  0  0  0  0  0
   -4.2229   -1.4920   -0.0006 H   0  0  0  0  0  0  0  0  0  0  0  0
   -4.3963    1.3201   -0.0001 H   0  0  0  0  0  0  0  0  0  0  0  0
   -2.1709   -1.0656   -0.0000 O   0  0  0  0  0  0  0  0  0  0  0  0
   -2.2358    1.1558    0.0002 N   0  0  0  0  0  0  0  0  0  0  0  0
    0.1044   -2.1172    0.0002 H   0  0  0  0  0  0  0  0  0  0  0  0
    0.1793    2.1885   -0.0001 H   0  0  0  0  0  0  0  0  0  0  0  0
    2.6159   -2.1594    0.0001 H   0  0  0  0  0  0  0  0  0  0  0  0
    2.7027    2.1362   -0.0002 H   0  0  0  0  0  0  0  0  0  0  0  0
    4.1065   -0.0412   -0.0001 F   0  0  0  0  0  0  0  0  0  0  0  0
  1  2  1  0  0  0  0
  1  7  1  0  0  0  0
  2 14  1  0  0  0  0
  3 16  1  0  0  0  0
  3  2  2  0  0  0  0
  4  3  1  0  0  0  0
  5  4  2  0  0  0  0
  5  6  1  0  0  0  0
  6  1  2  0  0  0  0
  7 13  2  0  0  0  0
  8  9  2  0  0  0  0
  8 12  1  0  0  0  0
  9 13  1  0  0  0  0
 10  8  1  0  0  0  0
 11  9  1  0  0  0  0
 12  7  1  0  0  0  0
 15  6  1  0  0  0  0
 17  5  1  0  0  0  0
 18  4  1  0  0  0  0
M  END
