Title Card Required
 OpenBabel11212310513D

 18 19  0  0  0  0  0  0  0  0999 V2000
    0.3592   -0.2374   -0.0001 C   0  0  0  0  0  0  0  0  0  0  0  0
    1.0446   -1.4691   -0.0000 C   0  0  0  0  0  0  0  0  0  0  0  0
    2.4346   -1.5212   -0.0000 C   0  0  0  0  0  0  0  0  0  0  0  0
    3.1786   -0.3350   -0.0001 C   0  0  0  0  0  0  0  0  0  0  0  0
    2.5245    0.8967    0.0000 C   0  0  0  0  0  0  0  0  0  0  0  0
    1.1322    0.9357    0.0000 C   0  0  0  0  0  0  0  0  0  0  0  0
   -1.1010   -0.2555   -0.0001 C   0  0  0  0  0  0  0  0  0  0  0  0
   -3.1147    0.5336   -0.0002 C   0  0  0  0  0  0  0  0  0  0  0  0
   -3.1554   -0.8297    0.0001 C   0  0  0  0  0  0  0  0  0  0  0  0
   -3.8542    1.3282   -0.0002 H   0  0  0  0  0  0  0  0  0  0  0  0
   -4.0231   -1.4865    0.0004 H   0  0  0  0  0  0  0  0  0  0  0  0
   -1.8052    0.9054   -0.0002 O   0  0  0  0  0  0  0  0  0  0  0  0
   -1.8650   -1.3145    0.0002 N   0  0  0  0  0  0  0  0  0  0  0  0
    0.4431   -2.3792   -0.0000 H   0  0  0  0  0  0  0  0  0  0  0  0
    2.9418   -2.4880   -0.0000 H   0  0  0  0  0  0  0  0  0  0  0  0
    3.0707    1.8414    0.0001 H   0  0  0  0  0  0  0  0  0  0  0  0
    4.2703   -0.3675   -0.0001 H   0  0  0  0  0  0  0  0  0  0  0  0
    0.5369    2.1336    0.0002 F   0  0  0  0  0  0  0  0  0  0  0  0
  1  7  1  0  0  0  0
  1  2  2  0  0  0  0
  1  6  1  0  0  0  0
  2 14  1  0  0  0  0
  3  2  1  0  0  0  0
  3 15  1  0  0  0  0
  4  3  2  0  0  0  0
  4  5  1  0  0  0  0
  5 16  1  0  0  0  0
  6  5  2  0  0  0  0
  6 18  1  0  0  0  0
  7 13  2  0  0  0  0
  8  9  2  0  0  0  0
  9 13  1  0  0  0  0
  9 11  1  0  0  0  0
 10  8  1  0  0  0  0
 12  8  1  0  0  0  0
 12  7  1  0  0  0  0
 17  4  1  0  0  0  0
M  END
