Title Card Required
 OpenBabel11212310513D

 20 21  0  0  0  0  0  0  0  0999 V2000
   -0.1590    0.0000   -0.0000 C   0  0  0  0  0  0  0  0  0  0  0  0
    0.5536   -1.2106   -0.0002 C   0  0  0  0  0  0  0  0  0  0  0  0
    1.9463   -1.2167   -0.0002 C   0  0  0  0  0  0  0  0  0  0  0  0
    2.6358   -0.0000   -0.0000 C   0  0  0  0  0  0  0  0  0  0  0  0
    1.9463    1.2167    0.0002 C   0  0  0  0  0  0  0  0  0  0  0  0
    0.5536    1.2106    0.0002 C   0  0  0  0  0  0  0  0  0  0  0  0
   -1.6410    0.0000   -0.0000 C   0  0  0  0  0  0  0  0  0  0  0  0
   -2.2655    1.1896   -0.0003 N   0  0  0  0  0  0  0  0  0  0  0  0
   -3.5956    1.1838   -0.0002 C   0  0  0  0  0  0  0  0  0  0  0  0
   -4.3365   -0.0000    0.0001 C   0  0  0  0  0  0  0  0  0  0  0  0
   -3.5956   -1.1839    0.0000 C   0  0  0  0  0  0  0  0  0  0  0  0
   -2.2655   -1.1896    0.0003 N   0  0  0  0  0  0  0  0  0  0  0  0
   -4.0938    2.1607   -0.0003 H   0  0  0  0  0  0  0  0  0  0  0  0
   -5.4274   -0.0000    0.0004 H   0  0  0  0  0  0  0  0  0  0  0  0
   -4.0938   -2.1608    0.0008 H   0  0  0  0  0  0  0  0  0  0  0  0
   -0.0067   -2.1459   -0.0004 H   0  0  0  0  0  0  0  0  0  0  0  0
   -0.0067    2.1459    0.0004 H   0  0  0  0  0  0  0  0  0  0  0  0
    2.5034   -2.1545   -0.0003 H   0  0  0  0  0  0  0  0  0  0  0  0
    2.5034    2.1545    0.0004 H   0  0  0  0  0  0  0  0  0  0  0  0
    4.3818   -0.0000    0.0000 Cl  0  0  0  0  0  0  0  0  0  0  0  0
  1  6  1  0  0  0  0
  2  3  1  0  0  0  0
  2  1  2  0  0  0  0
  3  4  2  0  0  0  0
  4 20  1  0  0  0  0
  4  5  1  0  0  0  0
  5  6  2  0  0  0  0
  5 19  1  0  0  0  0
  6 17  1  0  0  0  0
  7  1  1  0  0  0  0
  7 12  1  0  0  0  0
  8  9  1  0  0  0  0
  8  7  2  0  0  0  0
  9 10  2  0  0  0  0
 10 14  1  0  0  0  0
 11 10  1  0  0  0  0
 11 12  2  0  0  0  0
 11 15  1  0  0  0  0
 13  9  1  0  0  0  0
 16  2  1  0  0  0  0
 18  3  1  0  0  0  0
M  END
