Title Card Required
 OpenBabel11212310513D

 26 27  0  0  0  0  0  0  0  0999 V2000
   -0.8982   -0.0533   -0.0000 C   0  0  0  0  0  0  0  0  0  0  0  0
   -0.2533   -1.3025   -0.0002 C   0  0  0  0  0  0  0  0  0  0  0  0
    1.1355   -1.3743   -0.0002 C   0  0  0  0  0  0  0  0  0  0  0  0
    1.9047   -0.2006   -0.0001 C   0  0  0  0  0  0  0  0  0  0  0  0
    1.2647    1.0486    0.0001 C   0  0  0  0  0  0  0  0  0  0  0  0
   -0.1253    1.1203    0.0000 C   0  0  0  0  0  0  0  0  0  0  0  0
   -2.3805    0.0254   -0.0000 C   0  0  0  0  0  0  0  0  0  0  0  0
   -2.9408    1.2461    0.0001 N   0  0  0  0  0  0  0  0  0  0  0  0
   -4.2694    1.3111    0.0001 C   0  0  0  0  0  0  0  0  0  0  0  0
   -5.0713    0.1678    0.0001 C   0  0  0  0  0  0  0  0  0  0  0  0
   -4.3945   -1.0538    0.0000 C   0  0  0  0  0  0  0  0  0  0  0  0
   -3.0665   -1.1292   -0.0001 N   0  0  0  0  0  0  0  0  0  0  0  0
   -4.7152    2.3128    0.0002 H   0  0  0  0  0  0  0  0  0  0  0  0
   -6.1608    0.2254    0.0001 H   0  0  0  0  0  0  0  0  0  0  0  0
   -4.9434   -2.0030   -0.0000 H   0  0  0  0  0  0  0  0  0  0  0  0
   -0.8645   -2.2050   -0.0002 H   0  0  0  0  0  0  0  0  0  0  0  0
   -0.6386    2.0820    0.0001 H   0  0  0  0  0  0  0  0  0  0  0  0
    1.6521   -2.3354   -0.0003 H   0  0  0  0  0  0  0  0  0  0  0  0
    1.8661    1.9577    0.0002 H   0  0  0  0  0  0  0  0  0  0  0  0
    3.3893   -0.3364    0.0001 C   0  0  0  0  0  0  0  0  0  0  0  0
    3.9823   -1.3908    0.0005 O   0  0  0  0  0  0  0  0  0  0  0  0
    4.0164    0.8563   -0.0003 O   0  0  0  0  0  0  0  0  0  0  0  0
    5.4406    0.8128   -0.0000 C   0  0  0  0  0  0  0  0  0  0  0  0
    5.7794    1.8560    0.0006 H   0  0  0  0  0  0  0  0  0  0  0  0
    5.8157    0.2877    0.8915 H   0  0  0  0  0  0  0  0  0  0  0  0
    5.8160    0.2887   -0.8920 H   0  0  0  0  0  0  0  0  0  0  0  0
  1  7  1  0  0  0  0
  1  6  1  0  0  0  0
  2  1  2  0  0  0  0
  3  2  1  0  0  0  0
  3  4  2  0  0  0  0
  4 20  1  0  0  0  0
  4  5  1  0  0  0  0
  5 19  1  0  0  0  0
  6  5  2  0  0  0  0
  6 17  1  0  0  0  0
  7  8  2  0  0  0  0
  8  9  1  0  0  0  0
  9 13  1  0  0  0  0
 10  9  2  0  0  0  0
 10 14  1  0  0  0  0
 11 10  1  0  0  0  0
 12  7  1  0  0  0  0
 12 11  2  0  0  0  0
 15 11  1  0  0  0  0
 16  2  1  0  0  0  0
 18  3  1  0  0  0  0
 20 21  2  0  0  0  0
 22 23  1  0  0  0  0
 22 20  1  0  0  0  0
 23 24  1  0  0  0  0
 23 25  1  0  0  0  0
 26 23  1  0  0  0  0
M  END
