Title Card Required
 OpenBabel11212310513D

 22 23  0  0  0  0  0  0  0  0999 V2000
   -1.2274    0.3838   -0.0002 C   0  0  0  0  0  0  0  0  0  0  0  0
   -2.3101    1.2858   -0.0003 C   0  0  0  0  0  0  0  0  0  0  0  0
   -3.6229    0.8220   -0.0001 C   0  0  0  0  0  0  0  0  0  0  0  0
   -3.8872   -0.5511    0.0002 C   0  0  0  0  0  0  0  0  0  0  0  0
   -2.8149   -1.4460    0.0003 C   0  0  0  0  0  0  0  0  0  0  0  0
   -1.4923   -0.9977    0.0001 C   0  0  0  0  0  0  0  0  0  0  0  0
    0.0570    0.9399   -0.0002 N   0  0  0  0  0  0  0  0  0  0  0  0
    1.3068    0.3809   -0.0000 C   0  0  0  0  0  0  0  0  0  0  0  0
    1.4602   -0.9514   -0.0003 N   0  0  0  0  0  0  0  0  0  0  0  0
    2.7125   -1.4073   -0.0003 C   0  0  0  0  0  0  0  0  0  0  0  0
    3.8241   -0.5665   -0.0000 C   0  0  0  0  0  0  0  0  0  0  0  0
    3.5460    0.8064    0.0004 C   0  0  0  0  0  0  0  0  0  0  0  0
    2.3106    1.2862    0.0004 N   0  0  0  0  0  0  0  0  0  0  0  0
    2.8314   -2.4972   -0.0006 H   0  0  0  0  0  0  0  0  0  0  0  0
    4.8438   -0.9519   -0.0001 H   0  0  0  0  0  0  0  0  0  0  0  0
    4.3578    1.5439    0.0008 H   0  0  0  0  0  0  0  0  0  0  0  0
    0.1018    1.9529   -0.0002 H   0  0  0  0  0  0  0  0  0  0  0  0
   -2.1115    2.3615   -0.0006 H   0  0  0  0  0  0  0  0  0  0  0  0
   -0.6593   -1.6951    0.0001 H   0  0  0  0  0  0  0  0  0  0  0  0
   -4.4454    1.5415   -0.0002 H   0  0  0  0  0  0  0  0  0  0  0  0
   -3.0047   -2.5224    0.0005 H   0  0  0  0  0  0  0  0  0  0  0  0
   -4.9162   -0.9170    0.0005 H   0  0  0  0  0  0  0  0  0  0  0  0
  1  6  1  0  0  0  0
  2  1  2  0  0  0  0
  2  3  1  0  0  0  0
  3  4  2  0  0  0  0
  4  5  1  0  0  0  0
  4 22  1  0  0  0  0
  5 21  1  0  0  0  0
  6 19  1  0  0  0  0
  6  5  2  0  0  0  0
  7 17  1  0  0  0  0
  7  1  1  0  0  0  0
  7  8  1  0  0  0  0
  8 13  1  0  0  0  0
  9 10  1  0  0  0  0
  9  8  2  0  0  0  0
 10 11  2  0  0  0  0
 11 12  1  0  0  0  0
 12 13  2  0  0  0  0
 12 16  1  0  0  0  0
 14 10  1  0  0  0  0
 15 11  1  0  0  0  0
 18  2  1  0  0  0  0
 20  3  1  0  0  0  0
M  END
