Title Card Required
 OpenBabel11212310513D

 22 23  0  0  0  0  0  0  0  0999 V2000
   -2.0983   -0.3678   -0.0003 C   0  0  0  0  0  0  0  0  0  0  0  0
   -3.2603   -1.1644   -0.0010 C   0  0  0  0  0  0  0  0  0  0  0  0
   -4.5237   -0.5793   -0.0009 C   0  0  0  0  0  0  0  0  0  0  0  0
   -4.6575    0.8126   -0.0002 C   0  0  0  0  0  0  0  0  0  0  0  0
   -3.5061    1.6029    0.0006 C   0  0  0  0  0  0  0  0  0  0  0  0
   -2.2314    1.0322    0.0007 C   0  0  0  0  0  0  0  0  0  0  0  0
   -0.8714   -1.0432    0.0003 N   0  0  0  0  0  0  0  0  0  0  0  0
    0.4237   -0.6041    0.0004 C   0  0  0  0  0  0  0  0  0  0  0  0
    0.7048    0.7073    0.0003 N   0  0  0  0  0  0  0  0  0  0  0  0
    1.9891    1.0530    0.0002 C   0  0  0  0  0  0  0  0  0  0  0  0
    3.0104    0.1025    0.0000 C   0  0  0  0  0  0  0  0  0  0  0  0
    2.6163   -1.2435    0.0007 C   0  0  0  0  0  0  0  0  0  0  0  0
    1.3419   -1.5965    0.0011 N   0  0  0  0  0  0  0  0  0  0  0  0
    2.2259    2.1224   -0.0000 H   0  0  0  0  0  0  0  0  0  0  0  0
    3.3685   -2.0403    0.0013 H   0  0  0  0  0  0  0  0  0  0  0  0
   -0.9240   -2.0558    0.0005 H   0  0  0  0  0  0  0  0  0  0  0  0
   -3.1638   -2.2541   -0.0016 H   0  0  0  0  0  0  0  0  0  0  0  0
   -1.3381    1.6502    0.0012 H   0  0  0  0  0  0  0  0  0  0  0  0
   -5.4101   -1.2183   -0.0014 H   0  0  0  0  0  0  0  0  0  0  0  0
   -3.5939    2.6923    0.0012 H   0  0  0  0  0  0  0  0  0  0  0  0
   -5.6475    1.2735   -0.0002 H   0  0  0  0  0  0  0  0  0  0  0  0
    4.6872    0.5585   -0.0008 Cl  0  0  0  0  0  0  0  0  0  0  0  0
  1  7  1  0  0  0  0
  1  6  1  0  0  0  0
  2  3  1  0  0  0  0
  2  1  2  0  0  0  0
  3  4  2  0  0  0  0
  4  5  1  0  0  0  0
  5  6  2  0  0  0  0
  5 20  1  0  0  0  0
  6 18  1  0  0  0  0
  7  8  1  0  0  0  0
  7 16  1  0  0  0  0
  8 13  1  0  0  0  0
  9  8  2  0  0  0  0
 10  9  1  0  0  0  0
 11 10  2  0  0  0  0
 11 12  1  0  0  0  0
 12 13  2  0  0  0  0
 12 15  1  0  0  0  0
 14 10  1  0  0  0  0
 17  2  1  0  0  0  0
 19  3  1  0  0  0  0
 21  4  1  0  0  0  0
 22 11  1  0  0  0  0
M  END
