Title Card Required
 OpenBabel11212310513D

 26 27  0  0  0  0  0  0  0  0999 V2000
   -0.3090    0.7027   -0.0002 C   0  0  0  0  0  0  0  0  0  0  0  0
   -1.2593    1.7446    0.0002 C   0  0  0  0  0  0  0  0  0  0  0  0
   -2.6201    1.4756    0.0003 C   0  0  0  0  0  0  0  0  0  0  0  0
   -3.0819    0.1492    0.0000 C   0  0  0  0  0  0  0  0  0  0  0  0
   -2.1452   -0.8911   -0.0003 C   0  0  0  0  0  0  0  0  0  0  0  0
   -0.7721   -0.6204   -0.0004 C   0  0  0  0  0  0  0  0  0  0  0  0
    1.0441    1.0736   -0.0003 N   0  0  0  0  0  0  0  0  0  0  0  0
    2.1975    0.3416   -0.0002 C   0  0  0  0  0  0  0  0  0  0  0  0
    2.1546   -1.0004    0.0000 N   0  0  0  0  0  0  0  0  0  0  0  0
    3.3268   -1.6338    0.0002 C   0  0  0  0  0  0  0  0  0  0  0  0
    4.5499   -0.9654    0.0004 C   0  0  0  0  0  0  0  0  0  0  0  0
    4.4755    0.4339    0.0000 C   0  0  0  0  0  0  0  0  0  0  0  0
    3.3247    1.0900   -0.0003 N   0  0  0  0  0  0  0  0  0  0  0  0
    3.2853   -2.7295    0.0005 H   0  0  0  0  0  0  0  0  0  0  0  0
    5.3870    1.0442   -0.0002 H   0  0  0  0  0  0  0  0  0  0  0  0
    1.2319    2.0698   -0.0001 H   0  0  0  0  0  0  0  0  0  0  0  0
   -0.9181    2.7839    0.0005 H   0  0  0  0  0  0  0  0  0  0  0  0
   -0.0501   -1.4323   -0.0006 H   0  0  0  0  0  0  0  0  0  0  0  0
   -3.3538    2.2836    0.0006 H   0  0  0  0  0  0  0  0  0  0  0  0
   -2.4663   -1.9326   -0.0004 H   0  0  0  0  0  0  0  0  0  0  0  0
    5.5021   -1.4960    0.0006 H   0  0  0  0  0  0  0  0  0  0  0  0
   -4.4315   -0.0200    0.0002 O   0  0  0  0  0  0  0  0  0  0  0  0
   -4.9478   -1.3285    0.0000 C   0  0  0  0  0  0  0  0  0  0  0  0
   -4.6368   -1.8946    0.8972 H   0  0  0  0  0  0  0  0  0  0  0  0
   -6.0423   -1.2362   -0.0003 H   0  0  0  0  0  0  0  0  0  0  0  0
   -4.6363   -1.8945   -0.8971 H   0  0  0  0  0  0  0  0  0  0  0  0
  1  2  1  0  0  0  0
  2  3  2  0  0  0  0
  2 17  1  0  0  0  0
  3 19  1  0  0  0  0
  4 22  1  0  0  0  0
  4  3  1  0  0  0  0
  5  4  2  0  0  0  0
  6  5  1  0  0  0  0
  6  1  2  0  0  0  0
  7  1  1  0  0  0  0
  7  8  1  0  0  0  0
  7 16  1  0  0  0  0
  8  9  2  0  0  0  0
  9 10  1  0  0  0  0
 10 11  2  0  0  0  0
 10 14  1  0  0  0  0
 11 21  1  0  0  0  0
 12 11  1  0  0  0  0
 13  8  1  0  0  0  0
 13 12  2  0  0  0  0
 15 12  1  0  0  0  0
 18  6  1  0  0  0  0
 20  5  1  0  0  0  0
 23 22  1  0  0  0  0
 23 24  1  0  0  0  0
 25 23  1  0  0  0  0
 26 23  1  0  0  0  0
M  END
