Title Card Required
 OpenBabel11212310513D

 22 23  0  0  0  0  0  0  0  0999 V2000
    0.4223   -0.6704    0.0001 C   0  0  0  0  0  0  0  0  0  0  0  0
   -0.5432   -1.6965   -0.0002 C   0  0  0  0  0  0  0  0  0  0  0  0
   -1.9040   -1.4053    0.0003 C   0  0  0  0  0  0  0  0  0  0  0  0
   -2.3205   -0.0717    0.0000 C   0  0  0  0  0  0  0  0  0  0  0  0
   -1.3785    0.9577   -0.0000 C   0  0  0  0  0  0  0  0  0  0  0  0
   -0.0136    0.6671    0.0004 C   0  0  0  0  0  0  0  0  0  0  0  0
    1.7638   -1.0611    0.0002 N   0  0  0  0  0  0  0  0  0  0  0  0
    2.9328   -0.3452   -0.0002 C   0  0  0  0  0  0  0  0  0  0  0  0
    2.9116    0.9949   -0.0004 N   0  0  0  0  0  0  0  0  0  0  0  0
    4.0946    1.6095   -0.0001 C   0  0  0  0  0  0  0  0  0  0  0  0
    5.3048    0.9185    0.0004 C   0  0  0  0  0  0  0  0  0  0  0  0
    5.2067   -0.4787   -0.0004 C   0  0  0  0  0  0  0  0  0  0  0  0
    4.0431   -1.1139   -0.0002 N   0  0  0  0  0  0  0  0  0  0  0  0
    4.0716    2.7055    0.0002 H   0  0  0  0  0  0  0  0  0  0  0  0
    6.1068   -1.1053    0.0001 H   0  0  0  0  0  0  0  0  0  0  0  0
    1.9378   -2.0601    0.0016 H   0  0  0  0  0  0  0  0  0  0  0  0
   -0.2196   -2.7412   -0.0002 H   0  0  0  0  0  0  0  0  0  0  0  0
    0.7245    1.4645    0.0001 H   0  0  0  0  0  0  0  0  0  0  0  0
   -2.6380   -2.2122    0.0001 H   0  0  0  0  0  0  0  0  0  0  0  0
   -1.7077    1.9980    0.0000 H   0  0  0  0  0  0  0  0  0  0  0  0
    6.2663    1.4322    0.0014 H   0  0  0  0  0  0  0  0  0  0  0  0
   -4.1823    0.3391   -0.0000 Br  0  0  0  0  0  0  0  0  0  0  0  0
  1  7  1  0  0  0  0
  1  6  1  0  0  0  0
  2 17  1  0  0  0  0
  2  1  2  0  0  0  0
  2  3  1  0  0  0  0
  4  3  2  0  0  0  0
  5  4  1  0  0  0  0
  5 20  1  0  0  0  0
  5  6  2  0  0  0  0
  7 16  1  0  0  0  0
  8 13  1  0  0  0  0
  8  7  1  0  0  0  0
  9  8  2  0  0  0  0
  9 10  1  0  0  0  0
 10 14  1  0  0  0  0
 10 11  2  0  0  0  0
 11 21  1  0  0  0  0
 12 13  2  0  0  0  0
 12 15  1  0  0  0  0
 12 11  1  0  0  0  0
 18  6  1  0  0  0  0
 19  3  1  0  0  0  0
 22  4  1  0  0  0  0
M  END
