Title Card Required
 OpenBabel11212310513D

 22 23  0  0  0  0  0  0  0  0999 V2000
   -0.3337    0.5962    0.0000 C   0  0  0  0  0  0  0  0  0  0  0  0
   -1.3349    1.5874    0.0000 C   0  0  0  0  0  0  0  0  0  0  0  0
   -2.6842    1.2482   -0.0000 C   0  0  0  0  0  0  0  0  0  0  0  0
   -3.0545   -0.0990   -0.0000 C   0  0  0  0  0  0  0  0  0  0  0  0
   -2.0759   -1.0939    0.0000 C   0  0  0  0  0  0  0  0  0  0  0  0
   -0.7224   -0.7559    0.0000 C   0  0  0  0  0  0  0  0  0  0  0  0
    0.9938    1.0340    0.0000 N   0  0  0  0  0  0  0  0  0  0  0  0
    2.1869    0.3598    0.0001 C   0  0  0  0  0  0  0  0  0  0  0  0
    2.2129   -0.9804    0.0001 N   0  0  0  0  0  0  0  0  0  0  0  0
    3.4168   -1.5531   -0.0000 C   0  0  0  0  0  0  0  0  0  0  0  0
    4.6022   -0.8204   -0.0001 C   0  0  0  0  0  0  0  0  0  0  0  0
    4.4552    0.5726   -0.0001 C   0  0  0  0  0  0  0  0  0  0  0  0
    3.2702    1.1667    0.0000 N   0  0  0  0  0  0  0  0  0  0  0  0
    3.4322   -2.6492    0.0001 H   0  0  0  0  0  0  0  0  0  0  0  0
    5.3329    1.2302   -0.0001 H   0  0  0  0  0  0  0  0  0  0  0  0
    1.1324    2.0385   -0.0000 H   0  0  0  0  0  0  0  0  0  0  0  0
   -1.0482    2.6428    0.0000 H   0  0  0  0  0  0  0  0  0  0  0  0
    0.0436   -1.5264    0.0001 H   0  0  0  0  0  0  0  0  0  0  0  0
   -3.4505    2.0244   -0.0000 H   0  0  0  0  0  0  0  0  0  0  0  0
   -2.3744   -2.1434   -0.0000 H   0  0  0  0  0  0  0  0  0  0  0  0
    5.5811   -1.3002   -0.0001 H   0  0  0  0  0  0  0  0  0  0  0  0
   -4.7483   -0.5359   -0.0000 Cl  0  0  0  0  0  0  0  0  0  0  0  0
  1  2  1  0  0  0  0
  1  7  1  0  0  0  0
  3  2  2  0  0  0  0
  4  3  1  0  0  0  0
  4  5  2  0  0  0  0
  5  6  1  0  0  0  0
  6  1  2  0  0  0  0
  6 18  1  0  0  0  0
  7  8  1  0  0  0  0
  8  9  2  0  0  0  0
 10  9  1  0  0  0  0
 10 14  1  0  0  0  0
 11 10  2  0  0  0  0
 12 11  1  0  0  0  0
 12 15  1  0  0  0  0
 12 13  2  0  0  0  0
 13  8  1  0  0  0  0
 16  7  1  0  0  0  0
 17  2  1  0  0  0  0
 19  3  1  0  0  0  0
 20  5  1  0  0  0  0
 21 11  1  0  0  0  0
 22  4  1  0  0  0  0
M  END
