Title Card Required
 OpenBabel11212310513D

 22 23  0  0  0  0  0  0  0  0999 V2000
   -2.2257    0.6249    0.0002 C   0  0  0  0  0  0  0  0  0  0  0  0
   -3.2754    1.5633    0.0004 C   0  0  0  0  0  0  0  0  0  0  0  0
   -4.6030    1.1434    0.0001 C   0  0  0  0  0  0  0  0  0  0  0  0
   -4.9112   -0.2203   -0.0003 C   0  0  0  0  0  0  0  0  0  0  0  0
   -3.8699   -1.1508   -0.0005 C   0  0  0  0  0  0  0  0  0  0  0  0
   -2.5329   -0.7471   -0.0002 C   0  0  0  0  0  0  0  0  0  0  0  0
   -0.9209    1.1434    0.0003 N   0  0  0  0  0  0  0  0  0  0  0  0
    0.3009    0.5423    0.0001 C   0  0  0  0  0  0  0  0  0  0  0  0
    0.4036   -0.7944    0.0002 N   0  0  0  0  0  0  0  0  0  0  0  0
    1.6233   -1.2950    0.0004 C   0  0  0  0  0  0  0  0  0  0  0  0
    2.7852   -0.5218    0.0002 C   0  0  0  0  0  0  0  0  0  0  0  0
    2.5456    0.8601   -0.0003 C   0  0  0  0  0  0  0  0  0  0  0  0
    1.3479    1.3974   -0.0002 N   0  0  0  0  0  0  0  0  0  0  0  0
   -0.8466    2.1549    0.0000 H   0  0  0  0  0  0  0  0  0  0  0  0
   -3.0412    2.6318    0.0009 H   0  0  0  0  0  0  0  0  0  0  0  0
   -1.7280   -1.4766   -0.0001 H   0  0  0  0  0  0  0  0  0  0  0  0
   -5.4013    1.8894    0.0003 H   0  0  0  0  0  0  0  0  0  0  0  0
   -4.0952   -2.2202   -0.0008 H   0  0  0  0  0  0  0  0  0  0  0  0
    3.7843   -0.9495    0.0003 H   0  0  0  0  0  0  0  0  0  0  0  0
    3.9110    1.9442   -0.0002 Cl  0  0  0  0  0  0  0  0  0  0  0  0
    1.7622   -3.0322    0.0000 Cl  0  0  0  0  0  0  0  0  0  0  0  0
   -5.9515   -0.5521   -0.0005 H   0  0  0  0  0  0  0  0  0  0  0  0
  1  7  1  0  0  0  0
  1  2  1  0  0  0  0
  2 15  1  0  0  0  0
  3 17  1  0  0  0  0
  3  2  2  0  0  0  0
  4  3  1  0  0  0  0
  5  4  2  0  0  0  0
  5  6  1  0  0  0  0
  6 16  1  0  0  0  0
  6  1  2  0  0  0  0
  8  9  2  0  0  0  0
  8  7  1  0  0  0  0
  9 10  1  0  0  0  0
 11 19  1  0  0  0  0
 11 10  2  0  0  0  0
 12 13  2  0  0  0  0
 12 20  1  0  0  0  0
 12 11  1  0  0  0  0
 13  8  1  0  0  0  0
 14  7  1  0  0  0  0
 18  5  1  0  0  0  0
 21 10  1  0  0  0  0
 22  4  1  0  0  0  0
M  END
