Title Card Required
 OpenBabel11212310513D

 17 17  0  0  0  0  0  0  0  0999 V2000
    0.2075   -0.0540   -0.0001 C   0  0  0  0  0  0  0  0  0  0  0  0
   -0.5745   -1.2213   -0.0001 C   0  0  0  0  0  0  0  0  0  0  0  0
   -1.9650   -1.1406   -0.0002 C   0  0  0  0  0  0  0  0  0  0  0  0
   -1.8248    1.2778    0.0001 C   0  0  0  0  0  0  0  0  0  0  0  0
   -2.5931    0.1105   -0.0000 C   0  0  0  0  0  0  0  0  0  0  0  0
   -0.4307    1.1968    0.0002 C   0  0  0  0  0  0  0  0  0  0  0  0
    1.7017   -0.2057    0.0001 C   0  0  0  0  0  0  0  0  0  0  0  0
    2.2128   -1.3086    0.0004 O   0  0  0  0  0  0  0  0  0  0  0  0
   -0.0577   -2.1826   -0.0002 H   0  0  0  0  0  0  0  0  0  0  0  0
   -2.5656   -2.0534   -0.0005 H   0  0  0  0  0  0  0  0  0  0  0  0
   -2.3134    2.2550    0.0003 H   0  0  0  0  0  0  0  0  0  0  0  0
   -3.6840    0.1751    0.0000 H   0  0  0  0  0  0  0  0  0  0  0  0
    0.1567    2.1163    0.0002 H   0  0  0  0  0  0  0  0  0  0  0  0
    2.5555    1.0480   -0.0003 C   0  0  0  0  0  0  0  0  0  0  0  0
    3.6126    0.7554   -0.0009 H   0  0  0  0  0  0  0  0  0  0  0  0
    2.3447    1.6667   -0.8873 H   0  0  0  0  0  0  0  0  0  0  0  0
    2.3452    1.6670    0.8866 H   0  0  0  0  0  0  0  0  0  0  0  0
  1  7  1  0  0  0  0
  1  6  1  0  0  0  0
  2  1  2  0  0  0  0
  3  2  1  0  0  0  0
  3  5  2  0  0  0  0
  4  6  2  0  0  0  0
  4 11  1  0  0  0  0
  5 12  1  0  0  0  0
  5  4  1  0  0  0  0
  7  8  2  0  0  0  0
  9  2  1  0  0  0  0
 10  3  1  0  0  0  0
 13  6  1  0  0  0  0
 14  7  1  0  0  0  0
 14 17  1  0  0  0  0
 15 14  1  0  0  0  0
 16 14  1  0  0  0  0
M  END
