Title Card Required
 OpenBabel11212310513D

 32 33  0  0  0  0  0  0  0  0999 V2000
    2.1495    0.0722    0.0449 C   0  0  0  0  0  0  0  0  0  0  0  0
    1.5254   -0.6375    1.0856 C   0  0  0  0  0  0  0  0  0  0  0  0
    1.7983   -1.9897    1.2859 C   0  0  0  0  0  0  0  0  0  0  0  0
    2.6910   -2.6609    0.4435 C   0  0  0  0  0  0  0  0  0  0  0  0
    3.3203   -1.9652   -0.5912 C   0  0  0  0  0  0  0  0  0  0  0  0
    3.0605   -0.6056   -0.7808 C   0  0  0  0  0  0  0  0  0  0  0  0
    1.8753    1.5339   -0.1480 C   0  0  0  0  0  0  0  0  0  0  0  0
   -0.4863    1.3676   -0.0716 C   0  0  0  0  0  0  0  0  0  0  0  0
   -1.4626    1.7597    0.8651 C   0  0  0  0  0  0  0  0  0  0  0  0
   -2.6824    1.1005    0.9437 C   0  0  0  0  0  0  0  0  0  0  0  0
   -1.2348    2.5883    1.5386 H   0  0  0  0  0  0  0  0  0  0  0  0
   -2.0378   -0.3194   -0.9080 C   0  0  0  0  0  0  0  0  0  0  0  0
   -3.4356    1.3886    1.6795 H   0  0  0  0  0  0  0  0  0  0  0  0
   -2.2474   -1.1145   -1.6231 H   0  0  0  0  0  0  0  0  0  0  0  0
   -2.9840    0.0523    0.0575 C   0  0  0  0  0  0  0  0  0  0  0  0
   -0.8018    0.3303   -0.9618 C   0  0  0  0  0  0  0  0  0  0  0  0
   -0.0704    0.0295   -1.7136 H   0  0  0  0  0  0  0  0  0  0  0  0
   -4.2065   -0.5252    0.2018 O   0  0  0  0  0  0  0  0  0  0  0  0
   -4.5647   -1.5773   -0.6604 C   0  0  0  0  0  0  0  0  0  0  0  0
   -3.8783   -2.4389   -0.5668 H   0  0  0  0  0  0  0  0  0  0  0  0
   -5.5750   -1.8943   -0.3690 H   0  0  0  0  0  0  0  0  0  0  0  0
   -4.5820   -1.2561   -1.7181 H   0  0  0  0  0  0  0  0  0  0  0  0
    0.7187    2.0820   -0.1259 N   0  0  0  0  0  0  0  0  0  0  0  0
    3.0780    2.4244   -0.3361 C   0  0  0  0  0  0  0  0  0  0  0  0
    3.8062    2.2771    0.4783 H   0  0  0  0  0  0  0  0  0  0  0  0
    3.6016    2.1863   -1.2771 H   0  0  0  0  0  0  0  0  0  0  0  0
    2.7544    3.4725   -0.3674 H   0  0  0  0  0  0  0  0  0  0  0  0
    0.8217   -0.1220    1.7403 H   0  0  0  0  0  0  0  0  0  0  0  0
    3.5602   -0.0719   -1.5919 H   0  0  0  0  0  0  0  0  0  0  0  0
    1.3091   -2.5249    2.1032 H   0  0  0  0  0  0  0  0  0  0  0  0
    4.0207   -2.4810   -1.2526 H   0  0  0  0  0  0  0  0  0  0  0  0
    2.8982   -3.7227    0.5970 H   0  0  0  0  0  0  0  0  0  0  0  0
  1  2  1  0  0  0  0
  2  3  2  0  0  0  0
  2 28  1  0  0  0  0
  3 30  1  0  0  0  0
  4 32  1  0  0  0  0
  4  3  1  0  0  0  0
  5  4  2  0  0  0  0
  6  5  1  0  0  0  0
  6  1  2  0  0  0  0
  7 23  2  0  0  0  0
  7  1  1  0  0  0  0
  8  9  1  0  0  0  0
  9 10  2  0  0  0  0
  9 11  1  0  0  0  0
 10 13  1  0  0  0  0
 12 15  2  0  0  0  0
 14 12  1  0  0  0  0
 15 18  1  0  0  0  0
 15 10  1  0  0  0  0
 16 12  1  0  0  0  0
 16  8  2  0  0  0  0
 17 16  1  0  0  0  0
 19 20  1  0  0  0  0
 19 21  1  0  0  0  0
 19 18  1  0  0  0  0
 22 19  1  0  0  0  0
 23  8  1  0  0  0  0
 24  7  1  0  0  0  0
 24 25  1  0  0  0  0
 26 24  1  0  0  0  0
 27 24  1  0  0  0  0
 29  6  1  0  0  0  0
 31  5  1  0  0  0  0
M  END
