Title Card Required
 OpenBabel11212310513D

 22 22  0  0  0  0  0  0  0  0999 V2000
    0.4801    0.3017   -0.0588 C   0  0  0  0  0  0  0  0  0  0  0  0
    0.6618   -1.0478   -0.4255 C   0  0  0  0  0  0  0  0  0  0  0  0
    1.9250   -1.6369   -0.3704 C   0  0  0  0  0  0  0  0  0  0  0  0
    3.0339   -0.9053    0.0626 C   0  0  0  0  0  0  0  0  0  0  0  0
    2.8714    0.4332    0.4271 C   0  0  0  0  0  0  0  0  0  0  0  0
    1.6130    1.0305    0.3563 C   0  0  0  0  0  0  0  0  0  0  0  0
   -0.8348    0.9924   -0.1380 C   0  0  0  0  0  0  0  0  0  0  0  0
   -2.0108    0.4713   -0.0529 N   0  0  0  0  0  0  0  0  0  0  0  0
   -0.8522    2.4897   -0.3329 C   0  0  0  0  0  0  0  0  0  0  0  0
   -0.4577    3.0151    0.5524 H   0  0  0  0  0  0  0  0  0  0  0  0
   -0.2330    2.7866   -1.1942 H   0  0  0  0  0  0  0  0  0  0  0  0
   -1.8859    2.8208   -0.4933 H   0  0  0  0  0  0  0  0  0  0  0  0
   -0.1932   -1.6285   -0.7599 H   0  0  0  0  0  0  0  0  0  0  0  0
    1.5120    2.0785    0.6397 H   0  0  0  0  0  0  0  0  0  0  0  0
    2.0424   -2.6820   -0.6676 H   0  0  0  0  0  0  0  0  0  0  0  0
    3.7297    1.0191    0.7649 H   0  0  0  0  0  0  0  0  0  0  0  0
    4.0196   -1.3743    0.1122 H   0  0  0  0  0  0  0  0  0  0  0  0
   -2.0438   -0.8889    0.1652 O   0  0  0  0  0  0  0  0  0  0  0  0
   -3.3850   -1.3099    0.3162 C   0  0  0  0  0  0  0  0  0  0  0  0
   -3.3463   -2.3955    0.4828 H   0  0  0  0  0  0  0  0  0  0  0  0
   -3.8622   -0.8194    1.1815 H   0  0  0  0  0  0  0  0  0  0  0  0
   -3.9773   -1.0931   -0.5890 H   0  0  0  0  0  0  0  0  0  0  0  0
  1  6  1  0  0  0  0
  2  3  1  0  0  0  0
  2  1  2  0  0  0  0
  3  4  2  0  0  0  0
  4 17  1  0  0  0  0
  4  5  1  0  0  0  0
  5 16  1  0  0  0  0
  6  5  2  0  0  0  0
  6 14  1  0  0  0  0
  7  1  1  0  0  0  0
  7  8  2  0  0  0  0
  8 18  1  0  0  0  0
  9  7  1  0  0  0  0
  9 10  1  0  0  0  0
 11  9  1  0  0  0  0
 12  9  1  0  0  0  0
 13  2  1  0  0  0  0
 15  3  1  0  0  0  0
 18 19  1  0  0  0  0
 19 20  1  0  0  0  0
 19 21  1  0  0  0  0
 22 19  1  0  0  0  0
M  END
