Title Card Required
 OpenBabel11212310513D

 24 24  0  0  0  0  0  0  0  0999 V2000
    1.1428    0.3509   -0.0718 C   0  0  0  0  0  0  0  0  0  0  0  0
    1.1291   -0.9826   -0.5290 C   0  0  0  0  0  0  0  0  0  0  0  0
    2.2793   -1.7681   -0.4576 C   0  0  0  0  0  0  0  0  0  0  0  0
    3.4609   -1.2529    0.0815 C   0  0  0  0  0  0  0  0  0  0  0  0
    3.4902    0.0668    0.5379 C   0  0  0  0  0  0  0  0  0  0  0  0
    2.3479    0.8618    0.4505 C   0  0  0  0  0  0  0  0  0  0  0  0
   -0.0367    1.2529   -0.1639 C   0  0  0  0  0  0  0  0  0  0  0  0
   -1.2852    0.9408   -0.1247 N   0  0  0  0  0  0  0  0  0  0  0  0
    0.2022    2.7353   -0.3176 C   0  0  0  0  0  0  0  0  0  0  0  0
    0.6496    3.1607    0.5951 H   0  0  0  0  0  0  0  0  0  0  0  0
    0.8946    2.9373   -1.1494 H   0  0  0  0  0  0  0  0  0  0  0  0
   -0.7523    3.2446   -0.5001 H   0  0  0  0  0  0  0  0  0  0  0  0
    0.2170   -1.4042   -0.9426 H   0  0  0  0  0  0  0  0  0  0  0  0
    2.3952    1.8910    0.8074 H   0  0  0  0  0  0  0  0  0  0  0  0
    2.2478   -2.7969   -0.8238 H   0  0  0  0  0  0  0  0  0  0  0  0
    4.4076    0.4827    0.9608 H   0  0  0  0  0  0  0  0  0  0  0  0
    4.3558   -1.8767    0.1435 H   0  0  0  0  0  0  0  0  0  0  0  0
   -1.5215   -0.4231    0.0551 O   0  0  0  0  0  0  0  0  0  0  0  0
   -2.8473   -0.7779    0.1580 C   0  0  0  0  0  0  0  0  0  0  0  0
   -3.0907   -1.9457    0.2727 O   0  0  0  0  0  0  0  0  0  0  0  0
   -3.8662    0.3309    0.1185 C   0  0  0  0  0  0  0  0  0  0  0  0
   -3.6772    1.0619    0.9172 H   0  0  0  0  0  0  0  0  0  0  0  0
   -3.7990    0.8835   -0.8293 H   0  0  0  0  0  0  0  0  0  0  0  0
   -4.8585   -0.1210    0.2328 H   0  0  0  0  0  0  0  0  0  0  0  0
  1  6  1  0  0  0  0
  2  3  1  0  0  0  0
  2  1  2  0  0  0  0
  3  4  2  0  0  0  0
  4 17  1  0  0  0  0
  4  5  1  0  0  0  0
  5 16  1  0  0  0  0
  6  5  2  0  0  0  0
  6 14  1  0  0  0  0
  7  8  2  0  0  0  0
  7  1  1  0  0  0  0
  8 18  1  0  0  0  0
  9  7  1  0  0  0  0
  9 10  1  0  0  0  0
 11  9  1  0  0  0  0
 12  9  1  0  0  0  0
 13  2  1  0  0  0  0
 15  3  1  0  0  0  0
 18 19  1  0  0  0  0
 19 20  2  0  0  0  0
 21 19  1  0  0  0  0
 21 24  1  0  0  0  0
 21 22  1  0  0  0  0
 23 21  1  0  0  0  0
M  END
