Title Card Required
 OpenBabel11212310513D

 28 28  0  0  0  0  0  0  0  0999 V2000
    1.2931    0.1900    0.0001 C   0  0  0  0  0  0  0  0  0  0  0  0
    2.1336    1.3180    0.0000 C   0  0  0  0  0  0  0  0  0  0  0  0
    3.5191    1.1708   -0.0001 C   0  0  0  0  0  0  0  0  0  0  0  0
    4.0917   -0.1045   -0.0001 C   0  0  0  0  0  0  0  0  0  0  0  0
    3.2566   -1.2243   -0.0000 C   0  0  0  0  0  0  0  0  0  0  0  0
    1.8661   -1.0939    0.0001 C   0  0  0  0  0  0  0  0  0  0  0  0
   -0.0946    0.4171    0.0003 N   0  0  0  0  0  0  0  0  0  0  0  0
    4.1539    2.0602   -0.0002 H   0  0  0  0  0  0  0  0  0  0  0  0
    1.6921    2.3193    0.0001 H   0  0  0  0  0  0  0  0  0  0  0  0
    1.2154   -1.9641    0.0002 H   0  0  0  0  0  0  0  0  0  0  0  0
    3.6910   -2.2271   -0.0000 H   0  0  0  0  0  0  0  0  0  0  0  0
    5.1774   -0.2226   -0.0002 H   0  0  0  0  0  0  0  0  0  0  0  0
   -0.3605    1.3935    0.0003 H   0  0  0  0  0  0  0  0  0  0  0  0
   -1.1277   -0.4917    0.0001 C   0  0  0  0  0  0  0  0  0  0  0  0
   -0.9594   -1.6977    0.0000 O   0  0  0  0  0  0  0  0  0  0  0  0
   -2.5382    0.1473   -0.0000 C   0  0  0  0  0  0  0  0  0  0  0  0
   -3.5738   -0.9830    0.0002 C   0  0  0  0  0  0  0  0  0  0  0  0
   -3.4577   -1.6240    0.8852 H   0  0  0  0  0  0  0  0  0  0  0  0
   -4.5905   -0.5604   -0.0001 H   0  0  0  0  0  0  0  0  0  0  0  0
   -3.4575   -1.6245   -0.8845 H   0  0  0  0  0  0  0  0  0  0  0  0
   -2.7173    1.0110   -1.2643 C   0  0  0  0  0  0  0  0  0  0  0  0
   -3.7414    1.4152   -1.3018 H   0  0  0  0  0  0  0  0  0  0  0  0
   -2.0268    1.8692   -1.2926 H   0  0  0  0  0  0  0  0  0  0  0  0
   -2.5530    0.4164   -2.1761 H   0  0  0  0  0  0  0  0  0  0  0  0
   -2.7174    1.0115    1.2639 C   0  0  0  0  0  0  0  0  0  0  0  0
   -2.5528    0.4173    2.1759 H   0  0  0  0  0  0  0  0  0  0  0  0
   -2.0269    1.8698    1.2918 H   0  0  0  0  0  0  0  0  0  0  0  0
   -3.7415    1.4155    1.3013 H   0  0  0  0  0  0  0  0  0  0  0  0
  1  7  1  0  0  0  0
  2  9  1  0  0  0  0
  2  1  2  0  0  0  0
  3  2  1  0  0  0  0
  4  3  2  0  0  0  0
  4  5  1  0  0  0  0
  5  6  2  0  0  0  0
  6  1  1  0  0  0  0
  6 10  1  0  0  0  0
  8  3  1  0  0  0  0
 11  5  1  0  0  0  0
 12  4  1  0  0  0  0
 13  7  1  0  0  0  0
 14  7  1  0  0  0  0
 15 14  2  0  0  0  0
 16 14  1  0  0  0  0
 16 17  1  0  0  0  0
 16 25  1  0  0  0  0
 17 18  1  0  0  0  0
 19 17  1  0  0  0  0
 20 17  1  0  0  0  0
 21 16  1  0  0  0  0
 22 21  1  0  0  0  0
 23 21  1  0  0  0  0
 24 21  1  0  0  0  0
 25 27  1  0  0  0  0
 25 28  1  0  0  0  0
 25 26  1  0  0  0  0
M  END
