Title Card Required
 OpenBabel11212310513D

 34 34  0  0  0  0  0  0  0  0999 V2000
   -1.3179    0.0096   -0.1156 C   0  0  0  0  0  0  0  0  0  0  0  0
   -2.1049    0.0018   -1.2714 C   0  0  0  0  0  0  0  0  0  0  0  0
   -3.4672   -0.2990   -1.1926 C   0  0  0  0  0  0  0  0  0  0  0  0
   -4.0461   -0.6040    0.0414 C   0  0  0  0  0  0  0  0  0  0  0  0
   -3.2569   -0.6061    1.1963 C   0  0  0  0  0  0  0  0  0  0  0  0
   -1.8986   -0.2971    1.1201 C   0  0  0  0  0  0  0  0  0  0  0  0
    0.0709    0.3667   -0.2077 N   0  0  0  0  0  0  0  0  0  0  0  0
   -4.0749   -0.3037   -2.1007 H   0  0  0  0  0  0  0  0  0  0  0  0
   -1.6411    0.2241   -2.2351 H   0  0  0  0  0  0  0  0  0  0  0  0
   -1.2743   -0.3023    2.0146 H   0  0  0  0  0  0  0  0  0  0  0  0
   -3.7031   -0.8493    2.1635 H   0  0  0  0  0  0  0  0  0  0  0  0
   -5.1101   -0.8439    0.1039 H   0  0  0  0  0  0  0  0  0  0  0  0
    0.9911   -0.6379    0.0562 C   0  0  0  0  0  0  0  0  0  0  0  0
    0.5907   -1.7533    0.3459 O   0  0  0  0  0  0  0  0  0  0  0  0
    2.5205   -0.3764   -0.0562 C   0  0  0  0  0  0  0  0  0  0  0  0
    3.2239   -1.6882    0.3370 C   0  0  0  0  0  0  0  0  0  0  0  0
    2.9075   -2.5176   -0.3086 H   0  0  0  0  0  0  0  0  0  0  0  0
    4.3143   -1.5613    0.2483 H   0  0  0  0  0  0  0  0  0  0  0  0
    2.9845   -1.9717    1.3713 H   0  0  0  0  0  0  0  0  0  0  0  0
    3.0054    0.7189    0.9161 C   0  0  0  0  0  0  0  0  0  0  0  0
    2.6858    1.7320    0.6432 H   0  0  0  0  0  0  0  0  0  0  0  0
    2.6526    0.5161    1.9395 H   0  0  0  0  0  0  0  0  0  0  0  0
    4.1066    0.7225    0.9404 H   0  0  0  0  0  0  0  0  0  0  0  0
    2.9057   -0.0551   -1.5154 C   0  0  0  0  0  0  0  0  0  0  0  0
    2.5714   -0.8613   -2.1865 H   0  0  0  0  0  0  0  0  0  0  0  0
    2.4804    0.8867   -1.8880 H   0  0  0  0  0  0  0  0  0  0  0  0
    4.0015    0.0205   -1.6015 H   0  0  0  0  0  0  0  0  0  0  0  0
    0.3177    1.7862   -0.4682 C   0  0  0  0  0  0  0  0  0  0  0  0
    1.3585    1.9258   -0.7677 H   0  0  0  0  0  0  0  0  0  0  0  0
   -0.2916    2.0841   -1.3375 H   0  0  0  0  0  0  0  0  0  0  0  0
   -0.0186    2.6832    0.7214 C   0  0  0  0  0  0  0  0  0  0  0  0
    0.1652    3.7397    0.4692 H   0  0  0  0  0  0  0  0  0  0  0  0
    0.5964    2.4242    1.5968 H   0  0  0  0  0  0  0  0  0  0  0  0
   -1.0762    2.5797    1.0069 H   0  0  0  0  0  0  0  0  0  0  0  0
  1  6  1  0  0  0  0
  2  3  1  0  0  0  0
  2  1  2  0  0  0  0
  3  4  2  0  0  0  0
  4 12  1  0  0  0  0
  4  5  1  0  0  0  0
  5 11  1  0  0  0  0
  6  5  2  0  0  0  0
  6 10  1  0  0  0  0
  7  1  1  0  0  0  0
  7 13  1  0  0  0  0
  8  3  1  0  0  0  0
  9  2  1  0  0  0  0
 13 14  2  0  0  0  0
 15 13  1  0  0  0  0
 15 16  1  0  0  0  0
 15 20  1  0  0  0  0
 16 19  1  0  0  0  0
 17 16  1  0  0  0  0
 18 16  1  0  0  0  0
 20 23  1  0  0  0  0
 20 22  1  0  0  0  0
 21 20  1  0  0  0  0
 24 15  1  0  0  0  0
 25 24  1  0  0  0  0
 26 24  1  0  0  0  0
 27 24  1  0  0  0  0
 28  7  1  0  0  0  0
 28 31  1  0  0  0  0
 29 28  1  0  0  0  0
 30 28  1  0  0  0  0
 31 34  1  0  0  0  0
 31 33  1  0  0  0  0
 32 31  1  0  0  0  0
M  END
