Title Card Required
 OpenBabel11212310513D

 30 32  0  0  0  0  0  0  0  0999 V2000
   -2.0159    0.3438   -0.0294 C   0  0  0  0  0  0  0  0  0  0  0  0
   -2.9215    0.9800    0.8334 C   0  0  0  0  0  0  0  0  0  0  0  0
   -4.2710    0.6288    0.8236 C   0  0  0  0  0  0  0  0  0  0  0  0
   -4.7372   -0.3396   -0.0718 C   0  0  0  0  0  0  0  0  0  0  0  0
   -3.8473   -0.9526   -0.9575 C   0  0  0  0  0  0  0  0  0  0  0  0
   -2.4916   -0.6172   -0.9331 C   0  0  0  0  0  0  0  0  0  0  0  0
   -0.5904    0.8246   -0.0117 C   0  0  0  0  0  0  0  0  0  0  0  0
    1.7902    0.1741   -0.0947 C   0  0  0  0  0  0  0  0  0  0  0  0
    2.5336   -0.9655    0.2562 C   0  0  0  0  0  0  0  0  0  0  0  0
    3.9231   -0.9224    0.2675 C   0  0  0  0  0  0  0  0  0  0  0  0
    4.5709    0.2728   -0.0741 C   0  0  0  0  0  0  0  0  0  0  0  0
    3.8215    1.4049   -0.4088 C   0  0  0  0  0  0  0  0  0  0  0  0
    2.4212    1.3777   -0.4215 C   0  0  0  0  0  0  0  0  0  0  0  0
    0.2369   -1.5872    0.0901 C   0  0  0  0  0  0  0  0  0  0  0  0
    4.5012   -1.8083    0.5428 H   0  0  0  0  0  0  0  0  0  0  0  0
    5.6622    0.3207   -0.0740 H   0  0  0  0  0  0  0  0  0  0  0  0
    4.3340    2.3349   -0.6669 H   0  0  0  0  0  0  0  0  0  0  0  0
    1.8333    2.2589   -0.6638 H   0  0  0  0  0  0  0  0  0  0  0  0
    0.0348   -2.0489   -0.8905 H   0  0  0  0  0  0  0  0  0  0  0  0
   -0.6108   -1.8100    0.7491 H   0  0  0  0  0  0  0  0  0  0  0  0
    0.4064   -0.1263   -0.0661 N   0  0  0  0  0  0  0  0  0  0  0  0
    1.5908   -2.0815    0.6370 C   0  0  0  0  0  0  0  0  0  0  0  0
    1.8706   -3.0571    0.2133 H   0  0  0  0  0  0  0  0  0  0  0  0
    1.5599   -2.1975    1.7349 H   0  0  0  0  0  0  0  0  0  0  0  0
   -0.3475    2.0199    0.0595 O   0  0  0  0  0  0  0  0  0  0  0  0
   -2.5489    1.7570    1.5033 H   0  0  0  0  0  0  0  0  0  0  0  0
   -1.8088   -1.0873   -1.6424 H   0  0  0  0  0  0  0  0  0  0  0  0
   -4.9655    1.1190    1.5100 H   0  0  0  0  0  0  0  0  0  0  0  0
   -4.2103   -1.6922   -1.6752 H   0  0  0  0  0  0  0  0  0  0  0  0
   -5.7961   -0.6087   -0.0859 H   0  0  0  0  0  0  0  0  0  0  0  0
  1  7  1  0  0  0  0
  1  2  1  0  0  0  0
  2 26  1  0  0  0  0
  3  2  2  0  0  0  0
  3 28  1  0  0  0  0
  4  3  1  0  0  0  0
  5  6  1  0  0  0  0
  5  4  2  0  0  0  0
  6  1  2  0  0  0  0
  7 25  2  0  0  0  0
  8 21  1  0  0  0  0
  8  9  1  0  0  0  0
  9 10  2  0  0  0  0
  9 22  1  0  0  0  0
 10 15  1  0  0  0  0
 11 16  1  0  0  0  0
 11 10  1  0  0  0  0
 12 11  2  0  0  0  0
 13 12  1  0  0  0  0
 13  8  2  0  0  0  0
 14 22  1  0  0  0  0
 14 20  1  0  0  0  0
 17 12  1  0  0  0  0
 18 13  1  0  0  0  0
 19 14  1  0  0  0  0
 21  7  1  0  0  0  0
 21 14  1  0  0  0  0
 22 24  1  0  0  0  0
 23 22  1  0  0  0  0
 27  6  1  0  0  0  0
 29  5  1  0  0  0  0
 30  4  1  0  0  0  0
M  END
