Title Card Required
 OpenBabel11212310513D

 24 25  0  0  0  0  0  0  0  0999 V2000
   -1.1957    0.0397   -0.0005 C   0  0  0  0  0  0  0  0  0  0  0  0
   -1.9706    1.2126   -0.0307 C   0  0  0  0  0  0  0  0  0  0  0  0
   -3.3648    1.1502   -0.0302 C   0  0  0  0  0  0  0  0  0  0  0  0
   -4.0146   -0.0865    0.0003 C   0  0  0  0  0  0  0  0  0  0  0  0
   -3.2554   -1.2606    0.0288 C   0  0  0  0  0  0  0  0  0  0  0  0
   -1.8630   -1.1983    0.0277 C   0  0  0  0  0  0  0  0  0  0  0  0
    0.2929    0.0650    0.0012 C   0  0  0  0  0  0  0  0  0  0  0  0
    1.0331    1.2625    0.0346 C   0  0  0  0  0  0  0  0  0  0  0  0
    2.4227    1.2084    0.0325 C   0  0  0  0  0  0  0  0  0  0  0  0
    3.0777   -0.0303   -0.0012 C   0  0  0  0  0  0  0  0  0  0  0  0
    2.2493   -1.1618   -0.0287 C   0  0  0  0  0  0  0  0  0  0  0  0
    0.9210   -1.1204   -0.0278 N   0  0  0  0  0  0  0  0  0  0  0  0
    3.0038    2.1348    0.0588 H   0  0  0  0  0  0  0  0  0  0  0  0
    0.5324    2.2298    0.0660 H   0  0  0  0  0  0  0  0  0  0  0  0
    2.7037   -2.1608   -0.0527 H   0  0  0  0  0  0  0  0  0  0  0  0
   -1.4914    2.1922   -0.0596 H   0  0  0  0  0  0  0  0  0  0  0  0
   -1.2567   -2.1039    0.0482 H   0  0  0  0  0  0  0  0  0  0  0  0
   -3.9467    2.0747   -0.0552 H   0  0  0  0  0  0  0  0  0  0  0  0
   -3.7534   -2.2331    0.0521 H   0  0  0  0  0  0  0  0  0  0  0  0
   -5.1062   -0.1346    0.0009 H   0  0  0  0  0  0  0  0  0  0  0  0
    4.5776   -0.1427   -0.0069 C   0  0  0  0  0  0  0  0  0  0  0  0
    4.9001   -1.1943   -0.0189 H   0  0  0  0  0  0  0  0  0  0  0  0
    5.0132    0.3537   -0.8900 H   0  0  0  0  0  0  0  0  0  0  0  0
    5.0190    0.3359    0.8830 H   0  0  0  0  0  0  0  0  0  0  0  0
  1  7  1  0  0  0  0
  1  6  1  0  0  0  0
  2  3  1  0  0  0  0
  2  1  2  0  0  0  0
  3  4  2  0  0  0  0
  4 20  1  0  0  0  0
  4  5  1  0  0  0  0
  5 19  1  0  0  0  0
  6  5  2  0  0  0  0
  6 17  1  0  0  0  0
  7  8  1  0  0  0  0
  8 14  1  0  0  0  0
  9  8  2  0  0  0  0
  9 13  1  0  0  0  0
 10  9  1  0  0  0  0
 11 12  1  0  0  0  0
 11 10  2  0  0  0  0
 12  7  2  0  0  0  0
 15 11  1  0  0  0  0
 16  2  1  0  0  0  0
 18  3  1  0  0  0  0
 21 10  1  0  0  0  0
 21 24  1  0  0  0  0
 22 21  1  0  0  0  0
 23 21  1  0  0  0  0
M  END
