/Users/chenxinran/Desktop/temp/97.xyz
 OpenBabel02292413333D

 25 26  0  0  0  0  0  0  0  0999 V2000
    0.4060   -0.5287    0.0533 C   0  0  0  0  0  0  0  0  0  0  0  0
    1.4292    0.4529   -0.0147 C   0  0  0  0  0  0  0  0  0  0  0  0
    2.7783    0.0676    0.0084 C   0  0  0  0  0  0  0  0  0  0  0  0
    3.1300   -1.2805    0.0960 C   0  0  0  0  0  0  0  0  0  0  0  0
    2.1384   -2.2596    0.1523 C   0  0  0  0  0  0  0  0  0  0  0  0
    0.7993   -1.8756    0.1243 C   0  0  0  0  0  0  0  0  0  0  0  0
   -1.0543   -0.2285    0.0282 C   0  0  0  0  0  0  0  0  0  0  0  0
   -1.6052    1.0084    0.4195 C   0  0  0  0  0  0  0  0  0  0  0  0
   -2.9885    1.1768    0.3896 C   0  0  0  0  0  0  0  0  0  0  0  0
   -3.7980    0.1201   -0.0271 C   0  0  0  0  0  0  0  0  0  0  0  0
   -3.1665   -1.0748   -0.3847 C   0  0  0  0  0  0  0  0  0  0  0  0
   -1.8486   -1.2445   -0.3571 N   0  0  0  0  0  0  0  0  0  0  0  0
   -3.4289    2.1297    0.6944 H   0  0  0  0  0  0  0  0  0  0  0  0
   -0.9543    1.8148    0.7442 H   0  0  0  0  0  0  0  0  0  0  0  0
   -4.8853    0.2112   -0.0703 H   0  0  0  0  0  0  0  0  0  0  0  0
   -3.7613   -1.9370   -0.7102 H   0  0  0  0  0  0  0  0  0  0  0  0
    0.0033   -2.6197    0.1505 H   0  0  0  0  0  0  0  0  0  0  0  0
    3.5641    0.8196   -0.0455 H   0  0  0  0  0  0  0  0  0  0  0  0
    2.4043   -3.3168    0.2166 H   0  0  0  0  0  0  0  0  0  0  0  0
    4.1867   -1.5580    0.1170 H   0  0  0  0  0  0  0  0  0  0  0  0
    1.0512    1.7551   -0.1206 O   0  0  0  0  0  0  0  0  0  0  0  0
    2.0278    2.7568   -0.2851 C   0  0  0  0  0  0  0  0  0  0  0  0
    2.6344    2.5905   -1.1927 H   0  0  0  0  0  0  0  0  0  0  0  0
    1.4848    3.7059   -0.3865 H   0  0  0  0  0  0  0  0  0  0  0  0
    2.7028    2.8216    0.5868 H   0  0  0  0  0  0  0  0  0  0  0  0
  1  6  1  0  0  0  0
  2  3  1  0  0  0  0
  2  1  2  0  0  0  0
  3  4  2  0  0  0  0
  4 20  1  0  0  0  0
  4  5  1  0  0  0  0
  5 19  1  0  0  0  0
  6 17  1  0  0  0  0
  6  5  2  0  0  0  0
  7  1  1  0  0  0  0
  7  8  1  0  0  0  0
  8 14  1  0  0  0  0
  9  8  2  0  0  0  0
  9 13  1  0  0  0  0
 10  9  1  0  0  0  0
 11 12  1  0  0  0  0
 11 10  2  0  0  0  0
 12  7  2  0  0  0  0
 15 10  1  0  0  0  0
 16 11  1  0  0  0  0
 18  3  1  0  0  0  0
 21  2  1  0  0  0  0
 22 21  1  0  0  0  0
 22 25  1  0  0  0  0
 23 22  1  0  0  0  0
 24 22  1  0  0  0  0
M  END
