/Users/chenxinran/Desktop/temp/add-93.xyz
 OpenBabel08022410143D

 33 35  0  0  0  0  0  0  0  0999 V2000
    2.0108    0.2545   -0.0069 C   0  0  0  0  0  0  0  0  0  0  0  0
    3.3944    0.1126   -0.1612 C   0  0  0  0  0  0  0  0  0  0  0  0
    1.1472   -0.8631    0.0019 C   0  0  0  0  0  0  0  0  0  0  0  0
    3.9540   -1.1575   -0.2811 C   0  0  0  0  0  0  0  0  0  0  0  0
    4.0088    1.0122   -0.1803 H   0  0  0  0  0  0  0  0  0  0  0  0
    1.7657   -2.1208   -0.0924 C   0  0  0  0  0  0  0  0  0  0  0  0
    3.1380   -2.2896   -0.2331 C   0  0  0  0  0  0  0  0  0  0  0  0
    5.0337   -1.2692   -0.3990 H   0  0  0  0  0  0  0  0  0  0  0  0
    3.5403   -3.3004   -0.3156 H   0  0  0  0  0  0  0  0  0  0  0  0
    1.4910    1.5671    0.1536 N   0  0  0  0  0  0  0  0  0  0  0  0
    0.5862    2.0031    1.0814 C   0  0  0  0  0  0  0  0  0  0  0  0
    0.4325    3.3598    0.8754 C   0  0  0  0  0  0  0  0  0  0  0  0
    0.1340    1.3223    1.7963 H   0  0  0  0  0  0  0  0  0  0  0  0
    1.2986    3.6533   -0.2096 C   0  0  0  0  0  0  0  0  0  0  0  0
   -0.2075    4.0409    1.4306 H   0  0  0  0  0  0  0  0  0  0  0  0
    1.4775    4.6126   -0.6951 H   0  0  0  0  0  0  0  0  0  0  0  0
    1.9355    2.5696   -0.6357 N   0  0  0  0  0  0  0  0  0  0  0  0
    0.9917   -3.2182   -0.0822 F   0  0  0  0  0  0  0  0  0  0  0  0
   -0.3328   -0.7476    0.0328 C   0  0  0  0  0  0  0  0  0  0  0  0
   -1.1084   -1.4713    0.9572 C   0  0  0  0  0  0  0  0  0  0  0  0
   -0.9979    0.0934   -0.8701 C   0  0  0  0  0  0  0  0  0  0  0  0
   -2.4918   -1.3462    0.9854 C   0  0  0  0  0  0  0  0  0  0  0  0
   -0.6167   -2.1386    1.6669 H   0  0  0  0  0  0  0  0  0  0  0  0
   -2.3871    0.2258   -0.8561 C   0  0  0  0  0  0  0  0  0  0  0  0
   -0.4180    0.6654   -1.5971 H   0  0  0  0  0  0  0  0  0  0  0  0
   -3.1458   -0.4945    0.0793 C   0  0  0  0  0  0  0  0  0  0  0  0
   -3.0973   -1.9011    1.7040 H   0  0  0  0  0  0  0  0  0  0  0  0
   -2.8635    0.8906   -1.5757 H   0  0  0  0  0  0  0  0  0  0  0  0
   -4.4953   -0.4334    0.1812 O   0  0  0  0  0  0  0  0  0  0  0  0
   -5.2106    0.4014   -0.7005 C   0  0  0  0  0  0  0  0  0  0  0  0
   -6.2720    0.2964   -0.4401 H   0  0  0  0  0  0  0  0  0  0  0  0
   -4.9171    1.4609   -0.5907 H   0  0  0  0  0  0  0  0  0  0  0  0
   -5.0684    0.1023   -1.7544 H   0  0  0  0  0  0  0  0  0  0  0  0
  1  3  1  0  0  0  0
  1 10  1  0  0  0  0
  2  1  2  0  0  0  0
  3 19  1  0  0  0  0
  4  7  2  0  0  0  0
  4  2  1  0  0  0  0
  5  2  1  0  0  0  0
  6 18  1  0  0  0  0
  6  3  2  0  0  0  0
  7  6  1  0  0  0  0
  8  4  1  0  0  0  0
  9  7  1  0  0  0  0
 10 11  1  0  0  0  0
 11 13  1  0  0  0  0
 12 11  2  0  0  0  0
 12 15  1  0  0  0  0
 14 12  1  0  0  0  0
 16 14  1  0  0  0  0
 17 14  2  0  0  0  0
 17 10  1  0  0  0  0
 19 20  1  0  0  0  0
 20 22  2  0  0  0  0
 20 23  1  0  0  0  0
 21 24  1  0  0  0  0
 21 19  2  0  0  0  0
 22 27  1  0  0  0  0
 24 26  2  0  0  0  0
 25 21  1  0  0  0  0
 26 29  1  0  0  0  0
 26 22  1  0  0  0  0
 28 24  1  0  0  0  0
 30 32  1  0  0  0  0
 30 31  1  0  0  0  0
 30 29  1  0  0  0  0
 33 30  1  0  0  0  0
M  END
