Title Card Required
 OpenBabel01242410193D

 16 16  0  0  0  0  0  0  0  0999 V2000
    0.7232    0.0001   -0.0613 C   0  0  0  0  0  0  0  0  0  0  0  0
   -1.3534   -1.2110   -0.2487 C   0  0  0  0  0  0  0  0  0  0  0  0
    0.0371   -1.2156   -0.1252 C   0  0  0  0  0  0  0  0  0  0  0  0
    0.0373    1.2160   -0.1246 C   0  0  0  0  0  0  0  0  0  0  0  0
   -1.3532    1.2117   -0.2481 C   0  0  0  0  0  0  0  0  0  0  0  0
   -2.0520    0.0004   -0.3117 C   0  0  0  0  0  0  0  0  0  0  0  0
   -1.9110   -2.1478   -0.3112 H   0  0  0  0  0  0  0  0  0  0  0  0
    0.5862   -2.1573   -0.0824 H   0  0  0  0  0  0  0  0  0  0  0  0
    0.5866    2.1575   -0.0814 H   0  0  0  0  0  0  0  0  0  0  0  0
   -1.9105    2.1487   -0.3102 H   0  0  0  0  0  0  0  0  0  0  0  0
    2.6227   -0.0002    0.1066 Br  0  0  0  0  0  0  0  0  0  0  0  0
   -3.4120    0.0007   -0.4700 O   0  0  0  0  0  0  0  0  0  0  0  0
   -4.1608   -0.0010    0.7321 C   0  0  0  0  0  0  0  0  0  0  0  0
   -3.9475    0.8946    1.3446 H   0  0  0  0  0  0  0  0  0  0  0  0
   -5.2237   -0.0005    0.4537 H   0  0  0  0  0  0  0  0  0  0  0  0
   -3.9477   -0.8982    1.3421 H   0  0  0  0  0  0  0  0  0  0  0  0
  1 11  1  0  0  0  0
  2  3  1  0  0  0  0
  3  8  1  0  0  0  0
  3  1  2  0  0  0  0
  4  9  1  0  0  0  0
  4  1  1  0  0  0  0
  5  4  2  0  0  0  0
  6  2  2  0  0  0  0
  6  5  1  0  0  0  0
  7  2  1  0  0  0  0
 10  5  1  0  0  0  0
 12  6  1  0  0  0  0
 12 13  1  0  0  0  0
 13 16  1  0  0  0  0
 13 14  1  0  0  0  0
 15 13  1  0  0  0  0
M  END
