Title Card Required
 OpenBabel11222314393D

 14 13  0  0  0  0  0  0  0  0999 V2000
    0.5054   -0.8095    0.0074 C   0  0  0  0  0  0  0  0  0  0  0  0
   -4.1707   -0.4889   -0.0035 C   0  0  0  0  0  0  0  0  0  0  0  0
   -4.1755   -1.1335   -0.8958 H   0  0  0  0  0  0  0  0  0  0  0  0
   -5.0935    0.1112   -0.0050 H   0  0  0  0  0  0  0  0  0  0  0  0
   -4.1784   -1.1338    0.8884 H   0  0  0  0  0  0  0  0  0  0  0  0
   -2.9633    0.4222   -0.0013 C   0  0  0  0  0  0  0  0  0  0  0  0
   -2.9371    1.0767    0.8846 H   0  0  0  0  0  0  0  0  0  0  0  0
   -2.9343    1.0771   -0.8869 H   0  0  0  0  0  0  0  0  0  0  0  0
   -1.7843   -0.4053    0.0003 O   0  0  0  0  0  0  0  0  0  0  0  0
   -0.6023    0.2330    0.0033 C   0  0  0  0  0  0  0  0  0  0  0  0
   -0.4732    1.4264    0.0037 O   0  0  0  0  0  0  0  0  0  0  0  0
    0.4077   -1.4410    0.9003 H   0  0  0  0  0  0  0  0  0  0  0  0
    0.4030   -1.4540   -0.8755 H   0  0  0  0  0  0  0  0  0  0  0  0
    2.2844   -0.0403   -0.0022 Br  0  0  0  0  0  0  0  0  0  0  0  0
  1 12  1  0  0  0  0
  2  6  1  0  0  0  0
  2  5  1  0  0  0  0
  3  2  1  0  0  0  0
  4  2  1  0  0  0  0
  6  9  1  0  0  0  0
  6  7  1  0  0  0  0
  8  6  1  0  0  0  0
  9 10  1  0  0  0  0
 10 11  2  0  0  0  0
 10  1  1  0  0  0  0
 13  1  1  0  0  0  0
 14  1  1  0  0  0  0
M  END
