Title Card Required
 OpenBabel11222314393D

 18 18  0  0  0  0  0  0  0  0999 V2000
   -0.0130    0.0000    0.3991 C   0  0  0  0  0  0  0  0  0  0  0  0
    2.1475   -1.2637    0.1919 C   0  0  0  0  0  0  0  0  0  0  0  0
    0.6461   -1.2660   -0.1353 C   0  0  0  0  0  0  0  0  0  0  0  0
    0.6461    1.2660   -0.1353 C   0  0  0  0  0  0  0  0  0  0  0  0
    2.1475    1.2637    0.1919 C   0  0  0  0  0  0  0  0  0  0  0  0
    2.8354    0.0000   -0.3344 C   0  0  0  0  0  0  0  0  0  0  0  0
    0.5031   -1.3058   -1.2288 H   0  0  0  0  0  0  0  0  0  0  0  0
    0.1543   -2.1560    0.2855 H   0  0  0  0  0  0  0  0  0  0  0  0
    2.2818   -1.3232    1.2873 H   0  0  0  0  0  0  0  0  0  0  0  0
    2.6179   -2.1674   -0.2286 H   0  0  0  0  0  0  0  0  0  0  0  0
    0.5031    1.3057   -1.2288 H   0  0  0  0  0  0  0  0  0  0  0  0
    0.1543    2.1560    0.2855 H   0  0  0  0  0  0  0  0  0  0  0  0
    2.6179    2.1674   -0.2286 H   0  0  0  0  0  0  0  0  0  0  0  0
    2.2818    1.3232    1.2873 H   0  0  0  0  0  0  0  0  0  0  0  0
    2.7982    0.0000   -1.4390 H   0  0  0  0  0  0  0  0  0  0  0  0
    3.9021   -0.0000   -0.0567 H   0  0  0  0  0  0  0  0  0  0  0  0
    0.0027   -0.0000    1.4987 H   0  0  0  0  0  0  0  0  0  0  0  0
   -1.9507    0.0000   -0.0372 Br  0  0  0  0  0  0  0  0  0  0  0  0
  1 17  1  0  0  0  0
  2  9  1  0  0  0  0
  3  2  1  0  0  0  0
  3  8  1  0  0  0  0
  3  1  1  0  0  0  0
  4  5  1  0  0  0  0
  4 12  1  0  0  0  0
  4  1  1  0  0  0  0
  5 14  1  0  0  0  0
  6 16  1  0  0  0  0
  6  5  1  0  0  0  0
  6  2  1  0  0  0  0
  7  3  1  0  0  0  0
 10  2  1  0  0  0  0
 11  4  1  0  0  0  0
 13  5  1  0  0  0  0
 15  6  1  0  0  0  0
 18  1  1  0  0  0  0
M  END
