Title Card Required
 OpenBabel11222314393D

 17 16  0  0  1  0  0  0  0  0999 V2000
   -0.2363    0.8925    0.3903 C   0  0  1  0  0  0  0  0  0  0  0  0
   -1.3221   -0.7279   -0.0512 Br  0  0  0  0  0  0  0  0  0  0  0  0
   -0.2012    0.8701    1.4888 H   0  0  0  0  0  0  0  0  0  0  0  0
    1.1665    0.7596   -0.1863 C   0  0  0  0  0  0  0  0  0  0  0  0
    1.0965    0.6721   -1.2846 H   0  0  0  0  0  0  0  0  0  0  0  0
    1.6783    1.7208    0.0126 H   0  0  0  0  0  0  0  0  0  0  0  0
    2.0099   -0.3813    0.3810 C   0  0  0  0  0  0  0  0  0  0  0  0
    1.4941   -1.3367    0.1928 H   0  0  0  0  0  0  0  0  0  0  0  0
    2.0671   -0.2760    1.4794 H   0  0  0  0  0  0  0  0  0  0  0  0
   -0.9812    2.1222   -0.0980 C   0  0  0  0  0  0  0  0  0  0  0  0
   -0.4255    3.0283    0.1990 H   0  0  0  0  0  0  0  0  0  0  0  0
   -1.0702    2.1183   -1.1951 H   0  0  0  0  0  0  0  0  0  0  0  0
   -1.9911    2.1796    0.3313 H   0  0  0  0  0  0  0  0  0  0  0  0
    3.4182   -0.4251   -0.2090 C   0  0  0  0  0  0  0  0  0  0  0  0
    3.9691    0.5095   -0.0100 H   0  0  0  0  0  0  0  0  0  0  0  0
    4.0057   -1.2548    0.2140 H   0  0  0  0  0  0  0  0  0  0  0  0
    3.3870   -0.5628   -1.3026 H   0  0  0  0  0  0  0  0  0  0  0  0
  1  3  1  1  0  0  0
  2  1  1  0  0  0  0
  4  6  1  0  0  0  0
  4  7  1  0  0  0  0
  4  1  1  0  0  0  0
  5  4  1  0  0  0  0
  7  9  1  0  0  0  0
  8  7  1  0  0  0  0
 10 11  1  0  0  0  0
 10 13  1  0  0  0  0
 10  1  1  0  0  0  0
 12 10  1  0  0  0  0
 14 15  1  0  0  0  0
 14 16  1  0  0  0  0
 14  7  1  0  0  0  0
 17 14  1  0  0  0  0
M  END
