Title Card Required
 OpenBabel11222314393D

 17 16  0  0  0  0  0  0  0  0999 V2000
    0.1145    0.9171    0.0018 C   0  0  0  0  0  0  0  0  0  0  0  0
   -1.6373    0.0039    0.0000 Br  0  0  0  0  0  0  0  0  0  0  0  0
    0.1007    1.5516    0.8973 H   0  0  0  0  0  0  0  0  0  0  0  0
    1.3321   -0.0172   -0.0000 C   0  0  0  0  0  0  0  0  0  0  0  0
    1.3492   -0.8978    1.2579 C   0  0  0  0  0  0  0  0  0  0  0  0
    0.4710   -1.5589    1.2911 H   0  0  0  0  0  0  0  0  0  0  0  0
    1.3466   -0.2835    2.1731 H   0  0  0  0  0  0  0  0  0  0  0  0
    0.1008    1.5551   -0.8911 H   0  0  0  0  0  0  0  0  0  0  0  0
    2.2536   -1.5260    1.2744 H   0  0  0  0  0  0  0  0  0  0  0  0
    2.5698    0.9028    0.0017 C   0  0  0  0  0  0  0  0  0  0  0  0
    2.5909    1.5477    0.8950 H   0  0  0  0  0  0  0  0  0  0  0  0
    3.4917    0.3002    0.0005 H   0  0  0  0  0  0  0  0  0  0  0  0
    2.5908    1.5513   -0.8889 H   0  0  0  0  0  0  0  0  0  0  0  0
    1.3491   -0.8927   -1.2615 C   0  0  0  0  0  0  0  0  0  0  0  0
    0.4708   -1.5536   -1.2973 H   0  0  0  0  0  0  0  0  0  0  0  0
    1.3464   -0.2747   -2.1742 H   0  0  0  0  0  0  0  0  0  0  0  0
    2.2535   -1.5209   -1.2806 H   0  0  0  0  0  0  0  0  0  0  0  0
  1  3  1  0  0  0  0
  2  1  1  0  0  0  0
  4 10  1  0  0  0  0
  4  1  1  0  0  0  0
  4  5  1  0  0  0  0
  5  9  1  0  0  0  0
  5  6  1  0  0  0  0
  5  7  1  0  0  0  0
  8  1  1  0  0  0  0
 10 11  1  0  0  0  0
 12 10  1  0  0  0  0
 13 10  1  0  0  0  0
 14  4  1  0  0  0  0
 15 14  1  0  0  0  0
 16 14  1  0  0  0  0
 17 14  1  0  0  0  0
M  END
