Title Card Required
 OpenBabel11222314393D

 19 19  0  0  0  0  0  0  0  0999 V2000
    2.4315    0.1219    0.8080 C   0  0  0  0  0  0  0  0  0  0  0  0
    0.9661   -0.0167    0.5489 C   0  0  0  0  0  0  0  0  0  0  0  0
    0.3893   -1.2814    0.3353 C   0  0  0  0  0  0  0  0  0  0  0  0
   -0.9654   -1.4149    0.0642 C   0  0  0  0  0  0  0  0  0  0  0  0
   -1.7882   -0.2763   -0.0072 C   0  0  0  0  0  0  0  0  0  0  0  0
   -1.2275    0.9928    0.1986 C   0  0  0  0  0  0  0  0  0  0  0  0
    0.1390    1.1077    0.4699 C   0  0  0  0  0  0  0  0  0  0  0  0
    1.0194   -2.1736    0.3786 H   0  0  0  0  0  0  0  0  0  0  0  0
   -1.4214   -2.3930   -0.0989 H   0  0  0  0  0  0  0  0  0  0  0  0
   -1.8397    1.8927    0.1499 H   0  0  0  0  0  0  0  0  0  0  0  0
    0.5676    2.1021    0.6215 H   0  0  0  0  0  0  0  0  0  0  0  0
   -3.0969   -0.5018   -0.2752 O   0  0  0  0  0  0  0  0  0  0  0  0
   -3.9753    0.5960   -0.3694 C   0  0  0  0  0  0  0  0  0  0  0  0
   -4.9681    0.1849   -0.5947 H   0  0  0  0  0  0  0  0  0  0  0  0
   -4.0278    1.1617    0.5783 H   0  0  0  0  0  0  0  0  0  0  0  0
   -3.6811    1.2879   -1.1790 H   0  0  0  0  0  0  0  0  0  0  0  0
    2.8293   -0.7224    1.3851 H   0  0  0  0  0  0  0  0  0  0  0  0
    2.6685    1.0572    1.3300 H   0  0  0  0  0  0  0  0  0  0  0  0
    3.4007    0.1554   -0.7447 Cl  0  0  0  0  0  0  0  0  0  0  0  0
  1 18  1  0  0  0  0
  1 17  1  0  0  0  0
  2  1  1  0  0  0  0
  3  8  1  0  0  0  0
  3  2  2  0  0  0  0
  4  3  1  0  0  0  0
  5  4  2  0  0  0  0
  5  6  1  0  0  0  0
  6  7  2  0  0  0  0
  7  2  1  0  0  0  0
  7 11  1  0  0  0  0
  9  4  1  0  0  0  0
 10  6  1  0  0  0  0
 12  5  1  0  0  0  0
 13 12  1  0  0  0  0
 13 15  1  0  0  0  0
 14 13  1  0  0  0  0
 16 13  1  0  0  0  0
 19  1  1  0  0  0  0
M  END
