Title Card Required
 OpenBabel11222314393D

 18 18  0  0  1  0  0  0  0  0999 V2000
   -1.2996   -0.6375    0.0085 C   0  0  2  0  0  0  0  0  0  0  0  0
    0.1624   -0.2641   -0.0277 C   0  0  0  0  0  0  0  0  0  0  0  0
    0.6175    0.9517    0.5047 C   0  0  0  0  0  0  0  0  0  0  0  0
    1.9791    1.2517    0.5198 C   0  0  0  0  0  0  0  0  0  0  0  0
    2.9075    0.3403    0.0037 C   0  0  0  0  0  0  0  0  0  0  0  0
    2.4632   -0.8699   -0.5317 C   0  0  0  0  0  0  0  0  0  0  0  0
    1.0970   -1.1677   -0.5484 C   0  0  0  0  0  0  0  0  0  0  0  0
   -0.1080    1.6734    0.8862 H   0  0  0  0  0  0  0  0  0  0  0  0
    2.3200    2.2045    0.9321 H   0  0  0  0  0  0  0  0  0  0  0  0
    3.1797   -1.5845   -0.9437 H   0  0  0  0  0  0  0  0  0  0  0  0
    0.7523   -2.1148   -0.9727 H   0  0  0  0  0  0  0  0  0  0  0  0
   -1.4668   -1.5090   -0.6382 H   0  0  0  0  0  0  0  0  0  0  0  0
   -2.3228    0.6859   -0.7426 Cl  0  0  0  0  0  0  0  0  0  0  0  0
    3.9739    0.5780    0.0140 H   0  0  0  0  0  0  0  0  0  0  0  0
   -1.8173   -0.9233    1.4122 C   0  0  0  0  0  0  0  0  0  0  0  0
   -2.8825   -1.1955    1.3882 H   0  0  0  0  0  0  0  0  0  0  0  0
   -1.2451   -1.7564    1.8513 H   0  0  0  0  0  0  0  0  0  0  0  0
   -1.6943   -0.0431    2.0603 H   0  0  0  0  0  0  0  0  0  0  0  0
  1 12  1  6  0  0  0
  1 15  1  0  0  0  0
  2  1  1  0  0  0  0
  2  3  1  0  0  0  0
  3  4  2  0  0  0  0
  3  8  1  0  0  0  0
  4  9  1  0  0  0  0
  5 14  1  0  0  0  0
  5  4  1  0  0  0  0
  6  5  2  0  0  0  0
  7  6  1  0  0  0  0
  7  2  2  0  0  0  0
 10  6  1  0  0  0  0
 11  7  1  0  0  0  0
 13  1  1  0  0  0  0
 15 17  1  0  0  0  0
 15 18  1  0  0  0  0
 16 15  1  0  0  0  0
M  END
