Title Card Required
 OpenBabel11222314393D

 32 31  0  0  0  0  0  0  0  0999 V2000
    3.5361    0.7584    0.0000 C   0  0  0  0  0  0  0  0  0  0  0  0
   -1.5462    0.5588   -0.0000 C   0  0  0  0  0  0  0  0  0  0  0  0
   -1.5711    1.2261   -0.8812 H   0  0  0  0  0  0  0  0  0  0  0  0
   -1.5711    1.2261    0.8811 H   0  0  0  0  0  0  0  0  0  0  0  0
   -0.2363   -0.2293   -0.0000 C   0  0  0  0  0  0  0  0  0  0  0  0
   -0.2098   -0.8960    0.8811 H   0  0  0  0  0  0  0  0  0  0  0  0
   -0.2097   -0.8960   -0.8812 H   0  0  0  0  0  0  0  0  0  0  0  0
    1.0110    0.6558   -0.0000 C   0  0  0  0  0  0  0  0  0  0  0  0
    0.9865    1.3215    0.8820 H   0  0  0  0  0  0  0  0  0  0  0  0
    0.9865    1.3216   -0.8819 H   0  0  0  0  0  0  0  0  0  0  0  0
    2.3168   -0.1457   -0.0000 C   0  0  0  0  0  0  0  0  0  0  0  0
    2.3514   -0.8057    0.8829 H   0  0  0  0  0  0  0  0  0  0  0  0
    2.3515   -0.8056   -0.8830 H   0  0  0  0  0  0  0  0  0  0  0  0
    3.5782    1.3962    0.8928 H   0  0  0  0  0  0  0  0  0  0  0  0
    3.5782    1.3962   -0.8928 H   0  0  0  0  0  0  0  0  0  0  0  0
    5.2198   -0.2652    0.0000 Br  0  0  0  0  0  0  0  0  0  0  0  0
   -2.7940   -0.3247   -0.0000 C   0  0  0  0  0  0  0  0  0  0  0  0
   -2.7684   -0.9922    0.8810 H   0  0  0  0  0  0  0  0  0  0  0  0
   -2.7684   -0.9921   -0.8810 H   0  0  0  0  0  0  0  0  0  0  0  0
   -4.1049    0.4620   -0.0000 C   0  0  0  0  0  0  0  0  0  0  0  0
   -4.1297    1.1296   -0.8811 H   0  0  0  0  0  0  0  0  0  0  0  0
   -4.1297    1.1296    0.8811 H   0  0  0  0  0  0  0  0  0  0  0  0
   -5.3529   -0.4208   -0.0000 C   0  0  0  0  0  0  0  0  0  0  0  0
   -5.3280   -1.0886    0.8811 H   0  0  0  0  0  0  0  0  0  0  0  0
   -5.3280   -1.0886   -0.8811 H   0  0  0  0  0  0  0  0  0  0  0  0
   -6.6650    0.3654    0.0000 C   0  0  0  0  0  0  0  0  0  0  0  0
   -6.6871    1.0324   -0.8808 H   0  0  0  0  0  0  0  0  0  0  0  0
   -6.6870    1.0324    0.8808 H   0  0  0  0  0  0  0  0  0  0  0  0
   -7.9061   -0.5255    0.0000 C   0  0  0  0  0  0  0  0  0  0  0  0
   -7.9279   -1.1789    0.8883 H   0  0  0  0  0  0  0  0  0  0  0  0
   -8.8338    0.0683    0.0000 H   0  0  0  0  0  0  0  0  0  0  0  0
   -7.9279   -1.1789   -0.8882 H   0  0  0  0  0  0  0  0  0  0  0  0
  1 14  1  0  0  0  0
  2  4  1  0  0  0  0
  3  2  1  0  0  0  0
  5  2  1  0  0  0  0
  5  8  1  0  0  0  0
  5  6  1  0  0  0  0
  7  5  1  0  0  0  0
  8  9  1  0  0  0  0
 10  8  1  0  0  0  0
 11  8  1  0  0  0  0
 11  1  1  0  0  0  0
 11 12  1  0  0  0  0
 13 11  1  0  0  0  0
 15  1  1  0  0  0  0
 16  1  1  0  0  0  0
 17  2  1  0  0  0  0
 17 20  1  0  0  0  0
 17 18  1  0  0  0  0
 19 17  1  0  0  0  0
 20 23  1  0  0  0  0
 20 22  1  0  0  0  0
 21 20  1  0  0  0  0
 23 26  1  0  0  0  0
 23 24  1  0  0  0  0
 25 23  1  0  0  0  0
 26 29  1  0  0  0  0
 26 28  1  0  0  0  0
 27 26  1  0  0  0  0
 29 31  1  0  0  0  0
 29 30  1  0  0  0  0
 32 29  1  0  0  0  0
M  END
