Title Card Required
 OpenBabel11222314393D

 15 15  0  0  0  0  0  0  0  0999 V2000
    1.2375    0.0014    0.5297 S   0  0  0  0  0  0  0  0  0  0  0  0
   -1.1777    1.2254    0.1100 C   0  0  0  0  0  0  0  0  0  0  0  0
   -0.5191    0.0007    0.2295 C   0  0  0  0  0  0  0  0  0  0  0  0
   -1.1772   -1.2250    0.1143 C   0  0  0  0  0  0  0  0  0  0  0  0
   -2.5511   -1.2155   -0.1299 C   0  0  0  0  0  0  0  0  0  0  0  0
   -3.2340   -0.0008   -0.2550 C   0  0  0  0  0  0  0  0  0  0  0  0
   -2.5518    1.2146   -0.1341 C   0  0  0  0  0  0  0  0  0  0  0  0
   -0.6206    2.1575    0.2132 H   0  0  0  0  0  0  0  0  0  0  0  0
   -0.6195   -2.1563    0.2209 H   0  0  0  0  0  0  0  0  0  0  0  0
   -3.0908   -2.1605   -0.2204 H   0  0  0  0  0  0  0  0  0  0  0  0
   -3.0917    2.1592   -0.2279 H   0  0  0  0  0  0  0  0  0  0  0  0
    1.6362    1.2780    1.1032 O   0  0  0  0  0  0  0  0  0  0  0  0
    1.6363   -1.2724    1.1094 O   0  0  0  0  0  0  0  0  0  0  0  0
    1.9422   -0.0037   -1.4896 Cl  0  0  0  0  0  0  0  0  0  0  0  0
   -4.3093   -0.0015   -0.4470 H   0  0  0  0  0  0  0  0  0  0  0  0
  1 12  2  0  0  0  0
  1 13  2  0  0  0  0
  2  8  1  0  0  0  0
  2  3  1  0  0  0  0
  3  1  1  0  0  0  0
  4  9  1  0  0  0  0
  4  3  2  0  0  0  0
  5  4  1  0  0  0  0
  6  7  1  0  0  0  0
  6  5  2  0  0  0  0
  7  2  2  0  0  0  0
 10  5  1  0  0  0  0
 11  7  1  0  0  0  0
 14  1  1  0  0  0  0
 15  6  1  0  0  0  0
M  END
