Title Card Required
 OpenBabel11222314393D

 20 19  0  0  1  0  0  0  0  0999 V2000
    1.3204   -0.2302   -0.3621 C   0  0  2  0  0  0  0  0  0  0  0  0
    4.8604   -1.2691   -0.4561 C   0  0  0  0  0  0  0  0  0  0  0  0
    5.2263   -0.8303    0.4843 H   0  0  0  0  0  0  0  0  0  0  0  0
    4.7940   -2.3601   -0.3312 H   0  0  0  0  0  0  0  0  0  0  0  0
    3.5865   -0.7215   -0.8013 O   0  0  0  0  0  0  0  0  0  0  0  0
    2.5993   -0.9230    0.0795 C   0  0  0  0  0  0  0  0  0  0  0  0
    2.7083   -1.5754    1.0869 O   0  0  0  0  0  0  0  0  0  0  0  0
    1.2745   -0.2061   -1.4579 H   0  0  0  0  0  0  0  0  0  0  0  0
    1.5223    1.6838    0.1466 Br  0  0  0  0  0  0  0  0  0  0  0  0
    5.5346   -1.0171   -1.2830 H   0  0  0  0  0  0  0  0  0  0  0  0
    0.0830   -0.8465    0.2640 C   0  0  0  0  0  0  0  0  0  0  0  0
    0.1049   -1.9222    0.0110 H   0  0  0  0  0  0  0  0  0  0  0  0
    0.1802   -0.7935    1.3595 H   0  0  0  0  0  0  0  0  0  0  0  0
   -1.2343   -0.2294   -0.2080 C   0  0  0  0  0  0  0  0  0  0  0  0
   -1.2491    0.8451    0.0288 H   0  0  0  0  0  0  0  0  0  0  0  0
   -1.3197   -0.3132   -1.3043 H   0  0  0  0  0  0  0  0  0  0  0  0
   -2.4231   -0.9104    0.4471 C   0  0  0  0  0  0  0  0  0  0  0  0
   -2.4091   -0.7988    1.5392 H   0  0  0  0  0  0  0  0  0  0  0  0
   -2.4795   -1.9790    0.2011 H   0  0  0  0  0  0  0  0  0  0  0  0
   -4.1294   -0.1352   -0.1500 Br  0  0  0  0  0  0  0  0  0  0  0  0
  1  8  1  6  0  0  0
  1  6  1  0  0  0  0
  1  9  1  0  0  0  0
  1 11  1  0  0  0  0
  2  4  1  0  0  0  0
  2  3  1  0  0  0  0
  5  2  1  0  0  0  0
  5  6  1  0  0  0  0
  6  7  2  0  0  0  0
 10  2  1  0  0  0  0
 11 13  1  0  0  0  0
 12 11  1  0  0  0  0
 14 15  1  0  0  0  0
 14 11  1  0  0  0  0
 14 17  1  0  0  0  0
 16 14  1  0  0  0  0
 17 18  1  0  0  0  0
 19 17  1  0  0  0  0
 20 17  1  0  0  0  0
M  END
