Title Card Required
 OpenBabel11222314393D

 11 10  0  0  0  0  0  0  0  0999 V2000
    0.2483    0.8518    0.7366 C   0  0  0  0  0  0  0  0  0  0  0  0
   -2.8389   -0.9681   -0.1263 C   0  0  0  0  0  0  0  0  0  0  0  0
   -3.6231   -0.2511    0.1594 H   0  0  0  0  0  0  0  0  0  0  0  0
   -2.7671   -0.9884   -1.2241 H   0  0  0  0  0  0  0  0  0  0  0  0
   -1.5848   -0.6036    0.4519 O   0  0  0  0  0  0  0  0  0  0  0  0
   -1.1051    0.5991    0.1092 C   0  0  0  0  0  0  0  0  0  0  0  0
   -1.6807    1.3834   -0.6014 O   0  0  0  0  0  0  0  0  0  0  0  0
    0.5257    1.9004    0.5948 H   0  0  0  0  0  0  0  0  0  0  0  0
    1.6280   -0.2400   -0.1345 Br  0  0  0  0  0  0  0  0  0  0  0  0
   -3.0736   -1.9672    0.2594 H   0  0  0  0  0  0  0  0  0  0  0  0
    0.2542    0.5717    1.7966 H   0  0  0  0  0  0  0  0  0  0  0  0
  1 11  1  0  0  0  0
  2  3  1  0  0  0  0
  2 10  1  0  0  0  0
  2  5  1  0  0  0  0
  4  2  1  0  0  0  0
  6  5  1  0  0  0  0
  6  1  1  0  0  0  0
  7  6  2  0  0  0  0
  8  1  1  0  0  0  0
  9  1  1  0  0  0  0
M  END
