Title Card Required
 OpenBabel11222314393D

 17 17  0  0  1  0  0  0  0  0999 V2000
   -0.0423   -0.2131    0.4161 C   0  0  1  0  0  0  0  0  0  0  0  0
    0.6429   -1.4011   -0.2723 C   0  0  0  0  0  0  0  0  0  0  0  0
    2.1359   -1.4504    0.0744 C   0  0  0  0  0  0  0  0  0  0  0  0
    2.8349   -0.1430   -0.3028 C   0  0  0  0  0  0  0  0  0  0  0  0
    2.1578    1.0634    0.3691 C   0  0  0  0  0  0  0  0  0  0  0  0
    3.9005   -0.1741   -0.0256 H   0  0  0  0  0  0  0  0  0  0  0  0
    2.2575   -1.6370    1.1568 H   0  0  0  0  0  0  0  0  0  0  0  0
    2.6052   -2.3018   -0.4441 H   0  0  0  0  0  0  0  0  0  0  0  0
    0.5131   -1.2964   -1.3625 H   0  0  0  0  0  0  0  0  0  0  0  0
    0.1362   -2.3316    0.0231 H   0  0  0  0  0  0  0  0  0  0  0  0
    2.2860    0.9886    1.4645 H   0  0  0  0  0  0  0  0  0  0  0  0
    2.5887    2.0205    0.0432 H   0  0  0  0  0  0  0  0  0  0  0  0
    0.0106   -0.3437    1.5086 H   0  0  0  0  0  0  0  0  0  0  0  0
    2.7981   -0.0117   -1.3983 H   0  0  0  0  0  0  0  0  0  0  0  0
    0.6623    1.1059    0.0795 C   0  0  0  0  0  0  0  0  0  0  0  0
    0.1078    2.0757   -0.3708 O   0  0  0  0  0  0  0  0  0  0  0  0
   -1.9516   -0.1511   -0.0052 Br  0  0  0  0  0  0  0  0  0  0  0  0
  1 13  1  1  0  0  0
  2 10  1  0  0  0  0
  2  3  1  0  0  0  0
  2  1  1  0  0  0  0
  3  7  1  0  0  0  0
  4  6  1  0  0  0  0
  4  3  1  0  0  0  0
  4  5  1  0  0  0  0
  5 11  1  0  0  0  0
  8  3  1  0  0  0  0
  9  2  1  0  0  0  0
 12  5  1  0  0  0  0
 14  4  1  0  0  0  0
 15  5  1  0  0  0  0
 15  1  1  0  0  0  0
 16 15  2  0  0  0  0
 17  1  1  0  0  0  0
M  END
