Title Card Required
 OpenBabel11222314393D

 20 20  0  0  1  0  0  0  0  0999 V2000
    1.0299   -0.5939   -0.1457 C   0  0  2  0  0  0  0  0  0  0  0  0
    0.0108    0.5502   -0.2268 C   0  0  0  0  0  0  0  0  0  0  0  0
    0.3448    1.6809   -0.5016 O   0  0  0  0  0  0  0  0  0  0  0  0
    2.7918    0.0871    0.3977 Br  0  0  0  0  0  0  0  0  0  0  0  0
    1.1322   -1.3111   -1.4902 C   0  0  0  0  0  0  0  0  0  0  0  0
    0.1504   -1.7238   -1.7744 H   0  0  0  0  0  0  0  0  0  0  0  0
    1.4521   -0.6069   -2.2718 H   0  0  0  0  0  0  0  0  0  0  0  0
    1.8579   -2.1345   -1.4369 H   0  0  0  0  0  0  0  0  0  0  0  0
    0.7598   -1.2964    0.6503 H   0  0  0  0  0  0  0  0  0  0  0  0
   -1.4360    0.1979   -0.0260 C   0  0  0  0  0  0  0  0  0  0  0  0
   -2.3771    1.2273   -0.2059 C   0  0  0  0  0  0  0  0  0  0  0  0
   -1.8894   -1.0855    0.3238 C   0  0  0  0  0  0  0  0  0  0  0  0
   -3.7373    0.9809   -0.0398 C   0  0  0  0  0  0  0  0  0  0  0  0
   -2.0066    2.2172   -0.4766 H   0  0  0  0  0  0  0  0  0  0  0  0
   -3.2539   -1.3322    0.4883 C   0  0  0  0  0  0  0  0  0  0  0  0
   -1.1857   -1.9053    0.4729 H   0  0  0  0  0  0  0  0  0  0  0  0
   -4.1790   -0.3011    0.3076 C   0  0  0  0  0  0  0  0  0  0  0  0
   -4.4591    1.7887   -0.1808 H   0  0  0  0  0  0  0  0  0  0  0  0
   -3.5950   -2.3335    0.7608 H   0  0  0  0  0  0  0  0  0  0  0  0
   -5.2462   -0.4959    0.4385 H   0  0  0  0  0  0  0  0  0  0  0  0
  1  4  1  0  0  0  0
  1  9  1  1  0  0  0
  2  1  1  0  0  0  0
  2 10  1  0  0  0  0
  3  2  2  0  0  0  0
  5  8  1  0  0  0  0
  5  1  1  0  0  0  0
  6  5  1  0  0  0  0
  7  5  1  0  0  0  0
 10 12  1  0  0  0  0
 11 13  1  0  0  0  0
 11 10  2  0  0  0  0
 12 16  1  0  0  0  0
 12 15  2  0  0  0  0
 13 17  2  0  0  0  0
 14 11  1  0  0  0  0
 15 19  1  0  0  0  0
 17 20  1  0  0  0  0
 17 15  1  0  0  0  0
 18 13  1  0  0  0  0
M  END
