Title Card Required
 OpenBabel11222314393D

 24 23  0  0  1  0  0  0  0  0999 V2000
   -0.8436    0.8396    0.6376 C   0  0  1  0  0  0  0  0  0  0  0  0
    0.4966    0.8725   -0.1119 C   0  0  0  0  0  0  0  0  0  0  0  0
    0.7677    1.8412   -0.8072 O   0  0  0  0  0  0  0  0  0  0  0  0
    1.3712   -0.1663    0.0479 N   0  0  0  0  0  0  0  0  0  0  0  0
    2.6674   -0.0391   -0.6240 C   0  0  0  0  0  0  0  0  0  0  0  0
    3.6615    0.8026    0.1732 C   0  0  0  0  0  0  0  0  0  0  0  0
    2.4971    0.4181   -1.6083 H   0  0  0  0  0  0  0  0  0  0  0  0
    3.0626   -1.0521   -0.7893 H   0  0  0  0  0  0  0  0  0  0  0  0
    4.6326    0.8473   -0.3449 H   0  0  0  0  0  0  0  0  0  0  0  0
    3.2834    1.8294    0.2827 H   0  0  0  0  0  0  0  0  0  0  0  0
    3.8320    0.3805    1.1770 H   0  0  0  0  0  0  0  0  0  0  0  0
    1.1650   -1.3588    0.8635 C   0  0  0  0  0  0  0  0  0  0  0  0
    0.9545   -2.6351    0.0488 C   0  0  0  0  0  0  0  0  0  0  0  0
    0.3024   -1.2060    1.5222 H   0  0  0  0  0  0  0  0  0  0  0  0
    2.0410   -1.4757    1.5264 H   0  0  0  0  0  0  0  0  0  0  0  0
    1.8207   -2.8561   -0.5936 H   0  0  0  0  0  0  0  0  0  0  0  0
    0.8126   -3.4934    0.7243 H   0  0  0  0  0  0  0  0  0  0  0  0
    0.0638   -2.5419   -0.5880 H   0  0  0  0  0  0  0  0  0  0  0  0
   -1.5052    2.2012    0.6638 C   0  0  0  0  0  0  0  0  0  0  0  0
   -0.7278    0.4386    1.6513 H   0  0  0  0  0  0  0  0  0  0  0  0
   -2.4804    2.1495    1.1670 H   0  0  0  0  0  0  0  0  0  0  0  0
   -0.8570    2.9060    1.2089 H   0  0  0  0  0  0  0  0  0  0  0  0
   -1.6305    2.5873   -0.3555 H   0  0  0  0  0  0  0  0  0  0  0  0
   -2.0563   -0.4742   -0.2504 Br  0  0  0  0  0  0  0  0  0  0  0  0
  1 19  1  0  0  0  0
  1 20  1  1  0  0  0
  2  4  1  0  0  0  0
  2  1  1  0  0  0  0
  3  2  2  0  0  0  0
  4 12  1  0  0  0  0
  5  4  1  0  0  0  0
  5  6  1  0  0  0  0
  6 10  1  0  0  0  0
  6 11  1  0  0  0  0
  7  5  1  0  0  0  0
  8  5  1  0  0  0  0
  9  6  1  0  0  0  0
 12 14  1  0  0  0  0
 12 15  1  0  0  0  0
 13 17  1  0  0  0  0
 13 12  1  0  0  0  0
 16 13  1  0  0  0  0
 18 13  1  0  0  0  0
 19 21  1  0  0  0  0
 19 22  1  0  0  0  0
 23 19  1  0  0  0  0
 24  1  1  0  0  0  0
M  END
