Title Card Required
 OpenBabel11222314393D

 21 21  0  0  0  0  0  0  0  0999 V2000
   -0.0122   -0.0000    0.3303 C   0  0  0  0  0  0  0  0  0  0  0  0
    2.1624   -1.2650   -0.0308 C   0  0  0  0  0  0  0  0  0  0  0  0
    0.6414   -1.2606   -0.2507 C   0  0  0  0  0  0  0  0  0  0  0  0
    0.6414    1.2606   -0.2507 C   0  0  0  0  0  0  0  0  0  0  0  0
    2.1624    1.2650   -0.0308 C   0  0  0  0  0  0  0  0  0  0  0  0
    2.8120    0.0000   -0.6003 C   0  0  0  0  0  0  0  0  0  0  0  0
    0.4361   -1.2930   -1.3328 H   0  0  0  0  0  0  0  0  0  0  0  0
    0.1771   -2.1567    0.1894 H   0  0  0  0  0  0  0  0  0  0  0  0
    2.3888   -1.3450    1.0466 H   0  0  0  0  0  0  0  0  0  0  0  0
    2.5917   -2.1645   -0.5013 H   0  0  0  0  0  0  0  0  0  0  0  0
    0.4361    1.2930   -1.3328 H   0  0  0  0  0  0  0  0  0  0  0  0
    0.1771    2.1567    0.1893 H   0  0  0  0  0  0  0  0  0  0  0  0
    2.5917    2.1645   -0.5013 H   0  0  0  0  0  0  0  0  0  0  0  0
    2.3888    1.3451    1.0465 H   0  0  0  0  0  0  0  0  0  0  0  0
    2.6967   -0.0000   -1.6995 H   0  0  0  0  0  0  0  0  0  0  0  0
    3.8958   -0.0000   -0.3991 H   0  0  0  0  0  0  0  0  0  0  0  0
   -1.9371   -0.0000   -0.2734 Br  0  0  0  0  0  0  0  0  0  0  0  0
   -0.0462    0.0000    1.8545 C   0  0  0  0  0  0  0  0  0  0  0  0
   -0.5628    0.8919    2.2369 H   0  0  0  0  0  0  0  0  0  0  0  0
   -0.5628   -0.8919    2.2369 H   0  0  0  0  0  0  0  0  0  0  0  0
    0.9777    0.0001    2.2607 H   0  0  0  0  0  0  0  0  0  0  0  0
  1 18  1  0  0  0  0
  2  9  1  0  0  0  0
  3  2  1  0  0  0  0
  3  8  1  0  0  0  0
  3  1  1  0  0  0  0
  4  5  1  0  0  0  0
  4 12  1  0  0  0  0
  4  1  1  0  0  0  0
  5 14  1  0  0  0  0
  6 16  1  0  0  0  0
  6  5  1  0  0  0  0
  6  2  1  0  0  0  0
  7  3  1  0  0  0  0
 10  2  1  0  0  0  0
 11  4  1  0  0  0  0
 13  5  1  0  0  0  0
 15  6  1  0  0  0  0
 17  1  1  0  0  0  0
 18 19  1  0  0  0  0
 18 20  1  0  0  0  0
 18 21  1  0  0  0  0
M  END
