/Users/chenxinran/Desktop/temp/54.xyz
 OpenBabel05142413503D

 20 19  0  0  0  0  0  0  0  0999 V2000
   -1.7341   -0.5464   -0.0000 Br  0  0  0  0  0  0  0  0  0  0  0  0
   -0.0400    0.5643    0.0000 C   0  0  0  0  0  0  0  0  0  0  0  0
    1.1161   -0.4455    0.0000 C   0  0  0  0  0  0  0  0  0  0  0  0
   -0.0855    1.4178   -1.2622 C   0  0  0  0  0  0  0  0  0  0  0  0
   -0.0855    1.4178    1.2623 C   0  0  0  0  0  0  0  0  0  0  0  0
    1.0090   -1.0987    0.8816 H   0  0  0  0  0  0  0  0  0  0  0  0
    1.0089   -1.0988   -0.8815 H   0  0  0  0  0  0  0  0  0  0  0  0
   -0.9866    2.0469   -1.2811 H   0  0  0  0  0  0  0  0  0  0  0  0
    0.7936    2.0829   -1.2913 H   0  0  0  0  0  0  0  0  0  0  0  0
   -0.0773    0.7935   -2.1674 H   0  0  0  0  0  0  0  0  0  0  0  0
    0.7936    2.0828    1.2914 H   0  0  0  0  0  0  0  0  0  0  0  0
   -0.9866    2.0469    1.2811 H   0  0  0  0  0  0  0  0  0  0  0  0
   -0.0774    0.7935    2.1674 H   0  0  0  0  0  0  0  0  0  0  0  0
    2.5207    0.1714   -0.0001 C   0  0  0  0  0  0  0  0  0  0  0  0
    2.6468    0.8217   -0.8820 H   0  0  0  0  0  0  0  0  0  0  0  0
    2.6469    0.8220    0.8816 H   0  0  0  0  0  0  0  0  0  0  0  0
    3.6131   -0.8975    0.0000 C   0  0  0  0  0  0  0  0  0  0  0  0
    3.5364   -1.5462   -0.8880 H   0  0  0  0  0  0  0  0  0  0  0  0
    4.6179   -0.4472   -0.0001 H   0  0  0  0  0  0  0  0  0  0  0  0
    3.5365   -1.5460    0.8883 H   0  0  0  0  0  0  0  0  0  0  0  0
  1  2  1  0  0  0  0
  2  3  1  0  0  0  0
  2  5  1  0  0  0  0
  3  6  1  0  0  0  0
  4  2  1  0  0  0  0
  5 12  1  0  0  0  0
  5 11  1  0  0  0  0
  5 13  1  0  0  0  0
  7  3  1  0  0  0  0
  8  4  1  0  0  0  0
  9  4  1  0  0  0  0
 10  4  1  0  0  0  0
 14  3  1  0  0  0  0
 14 17  1  0  0  0  0
 14 16  1  0  0  0  0
 15 14  1  0  0  0  0
 17 20  1  0  0  0  0
 18 17  1  0  0  0  0
 19 17  1  0  0  0  0
M  END
