/Users/chenxinran/Desktop/temp/55.xyz
 OpenBabel05142413503D

 27 27  0  0  0  0  0  0  0  0999 V2000
    2.9209   -0.9611    0.0000 Br  0  0  0  0  0  0  0  0  0  0  0  0
    1.6956    0.6497   -0.0000 C   0  0  0  0  0  0  0  0  0  0  0  0
    0.2706    0.0802   -0.0000 C   0  0  0  0  0  0  0  0  0  0  0  0
    2.0204    1.4399    1.2625 C   0  0  0  0  0  0  0  0  0  0  0  0
    2.0204    1.4399   -1.2625 C   0  0  0  0  0  0  0  0  0  0  0  0
    0.1455   -0.5686   -0.8809 H   0  0  0  0  0  0  0  0  0  0  0  0
    0.1455   -0.5686    0.8809 H   0  0  0  0  0  0  0  0  0  0  0  0
    3.0795    1.7328    1.2830 H   0  0  0  0  0  0  0  0  0  0  0  0
    1.4139    2.3606    1.2907 H   0  0  0  0  0  0  0  0  0  0  0  0
    1.8034    0.8540    2.1674 H   0  0  0  0  0  0  0  0  0  0  0  0
    1.4139    2.3605   -1.2907 H   0  0  0  0  0  0  0  0  0  0  0  0
    3.0795    1.7329   -1.2829 H   0  0  0  0  0  0  0  0  0  0  0  0
    1.8035    0.8540   -2.1674 H   0  0  0  0  0  0  0  0  0  0  0  0
   -0.8476    1.1407    0.0000 C   0  0  0  0  0  0  0  0  0  0  0  0
   -0.7488    1.7894    0.8845 H   0  0  0  0  0  0  0  0  0  0  0  0
   -0.7488    1.7895   -0.8843 H   0  0  0  0  0  0  0  0  0  0  0  0
   -2.2145    0.4992    0.0000 C   0  0  0  0  0  0  0  0  0  0  0  0
   -2.8527    0.1698   -1.2048 C   0  0  0  0  0  0  0  0  0  0  0  0
   -2.8527    0.1697    1.2048 C   0  0  0  0  0  0  0  0  0  0  0  0
   -4.0952   -0.4683   -1.2076 C   0  0  0  0  0  0  0  0  0  0  0  0
   -2.3691    0.4204   -2.1535 H   0  0  0  0  0  0  0  0  0  0  0  0
   -4.0952   -0.4684    1.2076 C   0  0  0  0  0  0  0  0  0  0  0  0
   -2.3692    0.4204    2.1535 H   0  0  0  0  0  0  0  0  0  0  0  0
   -4.7209   -0.7902   -0.0000 C   0  0  0  0  0  0  0  0  0  0  0  0
   -4.5782   -0.7131   -2.1569 H   0  0  0  0  0  0  0  0  0  0  0  0
   -4.5783   -0.7131    2.1568 H   0  0  0  0  0  0  0  0  0  0  0  0
   -5.6937   -1.2876   -0.0000 H   0  0  0  0  0  0  0  0  0  0  0  0
  2  1  1  0  0  0  0
  2  4  1  0  0  0  0
  3  2  1  0  0  0  0
  3 14  1  0  0  0  0
  3  7  1  0  0  0  0
  4  8  1  0  0  0  0
  4  9  1  0  0  0  0
  4 10  1  0  0  0  0
  5  2  1  0  0  0  0
  6  3  1  0  0  0  0
 11  5  1  0  0  0  0
 12  5  1  0  0  0  0
 13  5  1  0  0  0  0
 14 15  1  0  0  0  0
 16 14  1  0  0  0  0
 17 14  1  0  0  0  0
 17 19  1  0  0  0  0
 18 17  2  0  0  0  0
 19 22  2  0  0  0  0
 19 23  1  0  0  0  0
 20 18  1  0  0  0  0
 20 24  2  0  0  0  0
 21 18  1  0  0  0  0
 22 26  1  0  0  0  0
 24 22  1  0  0  0  0
 25 20  1  0  0  0  0
 27 24  1  0  0  0  0
M  END
