/Users/chenxinran/Desktop/temp/57.xyz
 OpenBabel05142413503D

 20 19  0  0  0  0  0  0  0  0999 V2000
   -2.5680   -0.5661   -0.0000 Br  0  0  0  0  0  0  0  0  0  0  0  0
   -0.8949    0.5710    0.0000 C   0  0  0  0  0  0  0  0  0  0  0  0
    0.2753   -0.4237    0.0000 C   0  0  0  0  0  0  0  0  0  0  0  0
   -0.9494    1.4233   -1.2627 C   0  0  0  0  0  0  0  0  0  0  0  0
   -0.9494    1.4233    1.2628 C   0  0  0  0  0  0  0  0  0  0  0  0
    0.1776   -1.0768    0.8824 H   0  0  0  0  0  0  0  0  0  0  0  0
    0.1775   -1.0769   -0.8823 H   0  0  0  0  0  0  0  0  0  0  0  0
   -1.8587    2.0401   -1.2816 H   0  0  0  0  0  0  0  0  0  0  0  0
   -0.0798    2.1007   -1.2916 H   0  0  0  0  0  0  0  0  0  0  0  0
   -0.9333    0.7993   -2.1679 H   0  0  0  0  0  0  0  0  0  0  0  0
   -0.0798    2.1006    1.2918 H   0  0  0  0  0  0  0  0  0  0  0  0
   -1.8587    2.0402    1.2816 H   0  0  0  0  0  0  0  0  0  0  0  0
   -0.9335    0.7992    2.1680 H   0  0  0  0  0  0  0  0  0  0  0  0
    1.6640    0.2288   -0.0001 C   0  0  0  0  0  0  0  0  0  0  0  0
    1.7948    0.8726   -0.8838 H   0  0  0  0  0  0  0  0  0  0  0  0
    1.7948    0.8729    0.8835 H   0  0  0  0  0  0  0  0  0  0  0  0
    2.7606   -0.8236    0.0001 C   0  0  0  0  0  0  0  0  0  0  0  0
    2.7070   -1.4649   -0.8909 H   0  0  0  0  0  0  0  0  0  0  0  0
    2.7070   -1.4647    0.8913 H   0  0  0  0  0  0  0  0  0  0  0  0
    4.4015   -0.0661   -0.0000 Cl  0  0  0  0  0  0  0  0  0  0  0  0
  1  2  1  0  0  0  0
  2  3  1  0  0  0  0
  2  5  1  0  0  0  0
  3  6  1  0  0  0  0
  4  2  1  0  0  0  0
  5 12  1  0  0  0  0
  5 11  1  0  0  0  0
  5 13  1  0  0  0  0
  7  3  1  0  0  0  0
  8  4  1  0  0  0  0
  9  4  1  0  0  0  0
 10  4  1  0  0  0  0
 14  3  1  0  0  0  0
 14 17  1  0  0  0  0
 14 16  1  0  0  0  0
 15 14  1  0  0  0  0
 17 19  1  0  0  0  0
 18 17  1  0  0  0  0
 20 17  1  0  0  0  0
M  END
