Title Card Required
 OpenBabel11222314393D

 27 27  0  0  1  0  0  0  0  0999 V2000
    0.4645   -0.3203    0.0658 C   0  0  2  0  0  0  0  0  0  0  0  0
    5.0052   -0.6701   -1.1850 C   0  0  0  0  0  0  0  0  0  0  0  0
    4.7492   -1.5077   -1.8518 H   0  0  0  0  0  0  0  0  0  0  0  0
    6.0683   -0.7566   -0.9126 H   0  0  0  0  0  0  0  0  0  0  0  0
    4.8637    0.2693   -1.7406 H   0  0  0  0  0  0  0  0  0  0  0  0
    4.1494   -0.6911    0.0619 C   0  0  0  0  0  0  0  0  0  0  0  0
    4.3875    0.1403    0.7446 H   0  0  0  0  0  0  0  0  0  0  0  0
    4.2690   -1.6245    0.6352 H   0  0  0  0  0  0  0  0  0  0  0  0
    2.7744   -0.5705   -0.3457 O   0  0  0  0  0  0  0  0  0  0  0  0
    1.8596   -0.5387    0.6290 C   0  0  0  0  0  0  0  0  0  0  0  0
    2.1063   -0.6722    1.8017 O   0  0  0  0  0  0  0  0  0  0  0  0
    0.3950   -0.7600   -0.9363 H   0  0  0  0  0  0  0  0  0  0  0  0
    0.2930    1.6316   -0.2601 Br  0  0  0  0  0  0  0  0  0  0  0  0
   -0.6254   -0.8298    1.0009 C   0  0  0  0  0  0  0  0  0  0  0  0
   -0.5229   -0.3194    1.9686 H   0  0  0  0  0  0  0  0  0  0  0  0
   -0.3997   -1.8943    1.1873 H   0  0  0  0  0  0  0  0  0  0  0  0
   -2.0218   -0.6930    0.4470 C   0  0  0  0  0  0  0  0  0  0  0  0
   -2.8651    0.3451    0.8650 C   0  0  0  0  0  0  0  0  0  0  0  0
   -2.4905   -1.5895   -0.5248 C   0  0  0  0  0  0  0  0  0  0  0  0
   -4.1460    0.4853    0.3251 C   0  0  0  0  0  0  0  0  0  0  0  0
   -2.5092    1.0527    1.6173 H   0  0  0  0  0  0  0  0  0  0  0  0
   -3.7689   -1.4515   -1.0691 C   0  0  0  0  0  0  0  0  0  0  0  0
   -1.8469   -2.4100   -0.8562 H   0  0  0  0  0  0  0  0  0  0  0  0
   -4.6011   -0.4115   -0.6447 C   0  0  0  0  0  0  0  0  0  0  0  0
   -4.7908    1.3001    0.6631 H   0  0  0  0  0  0  0  0  0  0  0  0
   -4.1188   -2.1607   -1.8233 H   0  0  0  0  0  0  0  0  0  0  0  0
   -5.6029   -0.3028   -1.0671 H   0  0  0  0  0  0  0  0  0  0  0  0
  1 12  1  6  0  0  0
  1 10  1  0  0  0  0
  1 14  1  0  0  0  0
  2  4  1  0  0  0  0
  2  6  1  0  0  0  0
  3  2  1  0  0  0  0
  5  2  1  0  0  0  0
  6  8  1  0  0  0  0
  6  7  1  0  0  0  0
  9  6  1  0  0  0  0
  9 10  1  0  0  0  0
 10 11  2  0  0  0  0
 13  1  1  0  0  0  0
 14 16  1  0  0  0  0
 14 15  1  0  0  0  0
 17 18  1  0  0  0  0
 17 14  1  0  0  0  0
 18 21  1  0  0  0  0
 19 17  2  0  0  0  0
 20 25  1  0  0  0  0
 20 18  2  0  0  0  0
 22 24  2  0  0  0  0
 22 19  1  0  0  0  0
 23 19  1  0  0  0  0
 24 20  1  0  0  0  0
 26 22  1  0  0  0  0
 27 24  1  0  0  0  0
M  END
