Title Card Required
 OpenBabel11222314393D

 18 18  0  0  0  0  0  0  0  0999 V2000
   -0.4245   -0.0000    0.0000 C   0  0  0  0  0  0  0  0  0  0  0  0
    1.6578    1.2253   -0.0000 C   0  0  0  0  0  0  0  0  0  0  0  0
    1.6578   -1.2252   -0.0000 C   0  0  0  0  0  0  0  0  0  0  0  0
    0.2555   -1.2176   -0.0000 C   0  0  0  0  0  0  0  0  0  0  0  0
    0.2555    1.2176   -0.0000 C   0  0  0  0  0  0  0  0  0  0  0  0
   -0.3030   -2.1554    0.0000 H   0  0  0  0  0  0  0  0  0  0  0  0
   -0.3030    2.1554   -0.0000 H   0  0  0  0  0  0  0  0  0  0  0  0
   -2.3343    0.0000    0.0000 Br  0  0  0  0  0  0  0  0  0  0  0  0
    2.3384    0.0000   -0.0001 C   0  0  0  0  0  0  0  0  0  0  0  0
    3.4320    0.0000   -0.0001 H   0  0  0  0  0  0  0  0  0  0  0  0
    2.4045   -2.5359    0.0000 C   0  0  0  0  0  0  0  0  0  0  0  0
    2.1489   -3.1390    0.8869 H   0  0  0  0  0  0  0  0  0  0  0  0
    2.1475   -3.1399   -0.8858 H   0  0  0  0  0  0  0  0  0  0  0  0
    3.4930   -2.3798   -0.0008 H   0  0  0  0  0  0  0  0  0  0  0  0
    2.4045    2.5359    0.0000 C   0  0  0  0  0  0  0  0  0  0  0  0
    2.1474    3.1401   -0.8857 H   0  0  0  0  0  0  0  0  0  0  0  0
    2.1491    3.1389    0.8870 H   0  0  0  0  0  0  0  0  0  0  0  0
    3.4930    2.3798   -0.0010 H   0  0  0  0  0  0  0  0  0  0  0  0
  2  5  1  0  0  0  0
  2 15  1  0  0  0  0
  3  4  2  0  0  0  0
  3 11  1  0  0  0  0
  4  1  1  0  0  0  0
  4  6  1  0  0  0  0
  5  1  2  0  0  0  0
  7  5  1  0  0  0  0
  8  1  1  0  0  0  0
  9  3  1  0  0  0  0
  9  2  2  0  0  0  0
 10  9  1  0  0  0  0
 11 12  1  0  0  0  0
 13 11  1  0  0  0  0
 14 11  1  0  0  0  0
 15 17  1  0  0  0  0
 16 15  1  0  0  0  0
 18 15  1  0  0  0  0
M  END
