/Users/chenxinran/Desktop/temp/71.xyz
 OpenBabel02292413563D

 16 16  0  0  0  0  0  0  0  0999 V2000
   -1.4142   -0.0209   -0.0000 C   0  0  0  0  0  0  0  0  0  0  0  0
    0.7977   -1.0006   -0.0007 C   0  0  0  0  0  0  0  0  0  0  0  0
   -0.5938   -1.1468   -0.0005 C   0  0  0  0  0  0  0  0  0  0  0  0
   -0.8529    1.2620    0.0001 C   0  0  0  0  0  0  0  0  0  0  0  0
    0.5294    1.4086   -0.0001 C   0  0  0  0  0  0  0  0  0  0  0  0
    1.3683    0.2806   -0.0004 C   0  0  0  0  0  0  0  0  0  0  0  0
    1.4206   -1.8945   -0.0013 H   0  0  0  0  0  0  0  0  0  0  0  0
   -1.0406   -2.1421   -0.0007 H   0  0  0  0  0  0  0  0  0  0  0  0
   -1.5036    2.1377    0.0004 H   0  0  0  0  0  0  0  0  0  0  0  0
    0.9908    2.3977    0.0000 H   0  0  0  0  0  0  0  0  0  0  0  0
   -3.1542   -0.2075    0.0003 Cl  0  0  0  0  0  0  0  0  0  0  0  0
    2.7015    0.5270   -0.0008 O   0  0  0  0  0  0  0  0  0  0  0  0
    3.5966   -0.5607    0.0012 C   0  0  0  0  0  0  0  0  0  0  0  0
    3.4755   -1.1935   -0.8967 H   0  0  0  0  0  0  0  0  0  0  0  0
    4.6085   -0.1347    0.0028 H   0  0  0  0  0  0  0  0  0  0  0  0
    3.4723   -1.1927    0.8991 H   0  0  0  0  0  0  0  0  0  0  0  0
  1  4  1  0  0  0  0
  1 11  1  0  0  0  0
  2  3  1  0  0  0  0
  2  6  2  0  0  0  0
  3  1  2  0  0  0  0
  4  9  1  0  0  0  0
  5 10  1  0  0  0  0
  5  4  2  0  0  0  0
  6  5  1  0  0  0  0
  7  2  1  0  0  0  0
  8  3  1  0  0  0  0
 12  6  1  0  0  0  0
 12 13  1  0  0  0  0
 13 15  1  0  0  0  0
 13 16  1  0  0  0  0
 14 13  1  0  0  0  0
M  END
